<?xml version="1.0" encoding="UTF-8"?>

<!-- generated on Wed Apr 12 11:37:41 2017 by SUMO netconvert Version 0.29.0
<?xml version="1.0" encoding="UTF-8"?>

<configuration xmlns:xsi="http://www.w3.org/2001/XMLSchema-instance" xsi:noNamespaceSchemaLocation="http://sumo.dlr.de/xsd/netconvertConfiguration.xsd">

    <input>
        <osm-files value="map.osm"/>
    </input>

    <output>
        <output-file value="map-real.net.xml"/>
    </output>

    <projection>
        <proj.utm value="true"/>
    </projection>

</configuration>
-->

<net version="0.27" xmlns:xsi="http://www.w3.org/2001/XMLSchema-instance" xsi:noNamespaceSchemaLocation="http://sumo.dlr.de/xsd/net_file.xsd">

    <location netOffset="-696619.89,805300.09" convBoundary="0.00,0.00,1023.64,748.33" origBoundary="112.762505,-7.281886,112.831640,-7.259278" projParameter="+proj=utm +zone=49 +ellps=WGS84 +datum=WGS84 +units=m +no_defs"/>

    <type id="highway.bridleway" priority="1" numLanes="1" speed="2.78" allow="pedestrian" oneway="1" width="2.00"/>
    <type id="highway.bus_guideway" priority="1" numLanes="1" speed="8.33" allow="bus" oneway="1"/>
    <type id="highway.cycleway" priority="1" numLanes="1" speed="5.56" allow="bicycle" oneway="0" width="1.00"/>
    <type id="highway.footway" priority="1" numLanes="1" speed="2.78" allow="pedestrian" oneway="1" width="2.00"/>
    <type id="highway.ford" priority="1" numLanes="1" speed="2.78" allow="army" oneway="0"/>
    <type id="highway.living_street" priority="3" numLanes="1" speed="2.78" disallow="tram rail_urban rail rail_electric ship" oneway="0"/>
    <type id="highway.motorway" priority="13" numLanes="2" speed="44.44" allow="private emergency authority army vip passenger hov taxi bus coach delivery truck trailer motorcycle evehicle custom1 custom2" oneway="1"/>
    <type id="highway.motorway_link" priority="12" numLanes="1" speed="22.22" allow="private emergency authority army vip passenger hov taxi bus coach delivery truck trailer motorcycle evehicle custom1 custom2" oneway="1"/>
    <type id="highway.path" priority="1" numLanes="1" speed="2.78" allow="bicycle pedestrian" oneway="1" width="2.00"/>
    <type id="highway.pedestrian" priority="1" numLanes="1" speed="2.78" allow="pedestrian" oneway="1" width="2.00"/>
    <type id="highway.primary" priority="9" numLanes="2" speed="27.78" disallow="tram rail_urban rail rail_electric ship" oneway="0"/>
    <type id="highway.primary_link" priority="8" numLanes="1" speed="22.22" disallow="tram rail_urban rail rail_electric ship" oneway="0"/>
    <type id="highway.raceway" priority="14" numLanes="2" speed="83.33" allow="vip" oneway="0"/>
    <type id="highway.residential" priority="4" numLanes="1" speed="13.89" disallow="tram rail_urban rail rail_electric ship" oneway="0"/>
    <type id="highway.secondary" priority="7" numLanes="2" speed="27.78" disallow="tram rail_urban rail rail_electric ship" oneway="0"/>
    <type id="highway.secondary_link" priority="6" numLanes="1" speed="22.22" disallow="tram rail_urban rail rail_electric ship" oneway="0"/>
    <type id="highway.service" priority="2" numLanes="1" speed="5.56" allow="delivery bicycle pedestrian" oneway="0"/>
    <type id="highway.services" priority="1" numLanes="1" speed="8.33" disallow="tram rail_urban rail rail_electric ship" oneway="0"/>
    <type id="highway.stairs" priority="1" numLanes="1" speed="1.39" allow="pedestrian" oneway="1" width="2.00"/>
    <type id="highway.step" priority="1" numLanes="1" speed="1.39" allow="pedestrian" oneway="1" width="2.00"/>
    <type id="highway.steps" priority="1" numLanes="1" speed="1.39" allow="pedestrian" oneway="1" width="2.00"/>
    <type id="highway.tertiary" priority="6" numLanes="1" speed="22.22" disallow="tram rail_urban rail rail_electric ship" oneway="0"/>
    <type id="highway.tertiary_link" priority="5" numLanes="1" speed="22.22" disallow="tram rail_urban rail rail_electric ship" oneway="0"/>
    <type id="highway.track" priority="1" numLanes="1" speed="5.56" disallow="tram rail_urban rail rail_electric ship" oneway="0"/>
    <type id="highway.trunk" priority="11" numLanes="2" speed="27.78" disallow="tram rail_urban rail rail_electric bicycle pedestrian ship" oneway="0"/>
    <type id="highway.trunk_link" priority="10" numLanes="1" speed="22.22" disallow="tram rail_urban rail rail_electric bicycle pedestrian ship" oneway="0"/>
    <type id="highway.unclassified" priority="5" numLanes="1" speed="13.89" disallow="tram rail_urban rail rail_electric ship" oneway="0"/>
    <type id="highway.unsurfaced" priority="1" numLanes="1" speed="8.33" disallow="tram rail_urban rail rail_electric ship" oneway="0"/>
    <type id="railway.light_rail" priority="15" numLanes="1" speed="27.78" allow="rail_urban" oneway="1"/>
    <type id="railway.preserved" priority="15" numLanes="1" speed="27.78" allow="rail" oneway="1"/>
    <type id="railway.rail" priority="15" numLanes="1" speed="83.33" allow="rail rail_electric" oneway="1"/>
    <type id="railway.subway" priority="15" numLanes="1" speed="27.78" allow="rail_urban" oneway="1"/>
    <type id="railway.tram" priority="15" numLanes="1" speed="13.89" allow="tram" oneway="1"/>

    <edge id=":1362426353_0" function="internal">
        <lane id=":1362426353_0_0" index="0" disallow="tram rail_urban rail rail_electric ship" speed="22.22" length="9.08" shape="981.48,190.55 981.43,193.34 981.63,195.55 982.08,197.19 982.78,198.24"/>
        <lane id=":1362426353_0_1" index="1" disallow="tram rail_urban rail rail_electric ship" speed="22.22" length="9.08" shape="981.48,190.55 981.21,192.46 980.71,195.73 980.37,198.94 980.54,200.67"/>
    </edge>
    <edge id=":1362426353_2" function="internal">
        <lane id=":1362426353_2_0" index="0" disallow="tram rail_urban rail rail_electric ship" speed="22.22" length="19.25" shape="978.19,190.36 976.97,193.20 973.75,194.54 968.51,194.39 961.27,192.75"/>
    </edge>
    <edge id=":1362426353_3" function="internal">
        <lane id=":1362426353_3_0" index="0" disallow="tram rail_urban rail rail_electric ship" speed="22.22" length="20.54" shape="962.98,189.81 966.35,191.50 969.65,194.39 973.44,198.31 978.30,203.09"/>
        <lane id=":1362426353_3_1" index="1" disallow="tram rail_urban rail rail_electric ship" speed="22.22" length="20.54" shape="962.98,189.81 965.99,191.87 968.51,195.58 971.53,200.33 976.06,205.51"/>
    </edge>
    <edge id=":1362426353_5" function="internal">
        <lane id=":1362426353_5_0" index="0" disallow="tram rail_urban rail rail_electric ship" speed="22.22" length="4.97" shape="962.98,189.81 963.65,191.18 963.59,192.13 962.80,192.65 961.27,192.75"/>
    </edge>
    <edge id=":1362477890_0" function="internal">
        <lane id=":1362477890_0_0" index="0" disallow="tram rail_urban rail rail_electric ship" speed="13.89" length="9.34" shape="330.26,534.84 321.03,533.34"/>
    </edge>
    <edge id=":1362477890_1" function="internal">
        <lane id=":1362477890_1_0" index="0" disallow="tram rail_urban rail rail_electric ship" speed="13.89" length="5.15" shape="330.26,534.84 327.58,533.95 325.82,532.43"/>
    </edge>
    <edge id=":1362477890_2" function="internal">
        <lane id=":1362477890_2_0" index="0" disallow="tram rail_urban rail rail_electric ship" speed="13.89" length="2.41" shape="330.26,534.84 329.18,533.81 328.92,532.92"/>
    </edge>
    <edge id=":1362477890_9" function="internal">
        <lane id=":1362477890_9_0" index="0" speed="13.89" length="5.15" shape="325.82,532.43 324.98,530.25 325.07,527.44"/>
    </edge>
    <edge id=":1362477890_10" function="internal">
        <lane id=":1362477890_10_0" index="0" speed="13.89" length="2.41" shape="328.92,532.92 329.47,532.18 330.84,531.59"/>
    </edge>
    <edge id=":1362477890_3" function="internal">
        <lane id=":1362477890_3_0" index="0" disallow="tram rail_urban rail rail_electric ship" speed="13.89" length="4.99" shape="328.32,528.00 328.28,529.37 328.68,530.42 329.54,531.16 330.84,531.59"/>
    </edge>
    <edge id=":1362477890_4" function="internal">
        <lane id=":1362477890_4_0" index="0" disallow="tram rail_urban rail rail_electric ship" speed="13.89" length="10.24" shape="328.32,528.00 327.46,530.68 325.96,532.46 323.82,533.35 321.03,533.34"/>
    </edge>
    <edge id=":1362477890_5" function="internal">
        <lane id=":1362477890_5_0" index="0" disallow="tram rail_urban rail rail_electric ship" speed="13.89" length="4.82" shape="328.32,528.00 327.29,529.08 326.41,529.34 325.67,528.80 325.07,527.44"/>
    </edge>
    <edge id=":1362477890_6" function="internal">
        <lane id=":1362477890_6_0" index="0" disallow="tram rail_urban rail rail_electric ship" speed="13.89" length="5.02" shape="321.51,530.08 322.87,530.08 323.91,529.64 324.64,528.76 325.07,527.44"/>
    </edge>
    <edge id=":1362477890_7" function="internal">
        <lane id=":1362477890_7_0" index="0" disallow="tram rail_urban rail rail_electric ship" speed="13.89" length="9.45" shape="321.51,530.08 330.84,531.59"/>
    </edge>
    <edge id=":1362477890_8" function="internal">
        <lane id=":1362477890_8_0" index="0" disallow="tram rail_urban rail rail_electric ship" speed="13.89" length="2.41" shape="321.51,530.08 322.61,531.07 322.90,531.95"/>
    </edge>
    <edge id=":1362477890_11" function="internal">
        <lane id=":1362477890_11_0" index="0" speed="13.89" length="2.41" shape="322.90,531.95 322.38,532.70 321.03,533.34"/>
    </edge>
    <edge id=":1362477910_0" function="internal">
        <lane id=":1362477910_0_0" index="0" disallow="tram rail_urban rail rail_electric ship" speed="13.89" length="9.61" shape="104.53,501.85 95.03,500.38"/>
    </edge>
    <edge id=":1362477910_1" function="internal">
        <lane id=":1362477910_1_0" index="0" disallow="tram rail_urban rail rail_electric ship" speed="13.89" length="5.15" shape="104.53,501.85 101.95,501.06 100.17,499.55 100.12,499.45"/>
    </edge>
    <edge id=":1362477910_2" function="internal">
        <lane id=":1362477910_2_0" index="0" disallow="tram rail_urban rail rail_electric ship" speed="13.89" length="2.41" shape="104.53,501.85 103.42,500.86 103.14,499.98"/>
    </edge>
    <edge id=":1362477910_9" function="internal">
        <lane id=":1362477910_9_0" index="0" speed="13.89" length="5.26" shape="100.12,499.45 99.18,497.33 98.99,494.39"/>
    </edge>
    <edge id=":1362477910_10" function="internal">
        <lane id=":1362477910_10_0" index="0" speed="13.89" length="2.41" shape="103.14,499.98 103.66,499.22 105.01,498.58"/>
    </edge>
    <edge id=":1362477910_3" function="internal">
        <lane id=":1362477910_3_0" index="0" disallow="tram rail_urban rail rail_electric ship" speed="13.89" length="5.40" shape="102.29,494.60 102.37,496.18 102.85,497.37 103.73,498.18 105.01,498.58"/>
    </edge>
    <edge id=":1362477910_4" function="internal">
        <lane id=":1362477910_4_0" index="0" disallow="tram rail_urban rail rail_electric ship" speed="13.89" length="10.83" shape="102.29,494.60 101.67,497.54 100.25,499.49 98.04,500.44 95.03,500.38"/>
    </edge>
    <edge id=":1362477910_5" function="internal">
        <lane id=":1362477910_5_0" index="0" disallow="tram rail_urban rail rail_electric ship" speed="13.89" length="4.82" shape="102.29,494.60 101.39,495.78 100.54,496.14 99.74,495.68 98.99,494.39"/>
    </edge>
    <edge id=":1362477910_6" function="internal">
        <lane id=":1362477910_6_0" index="0" disallow="tram rail_urban rail rail_electric ship" speed="13.89" length="5.12" shape="95.56,497.12 96.99,497.15 98.03,496.70 98.70,495.78 98.99,494.39"/>
    </edge>
    <edge id=":1362477910_7" function="internal">
        <lane id=":1362477910_7_0" index="0" disallow="tram rail_urban rail rail_electric ship" speed="13.89" length="9.55" shape="95.56,497.12 105.01,498.58"/>
    </edge>
    <edge id=":1362477910_8" function="internal">
        <lane id=":1362477910_8_0" index="0" disallow="tram rail_urban rail rail_electric ship" speed="13.89" length="2.41" shape="95.56,497.12 96.65,498.14 96.93,499.02"/>
    </edge>
    <edge id=":1362477910_11" function="internal">
        <lane id=":1362477910_11_0" index="0" speed="13.89" length="2.41" shape="96.93,499.02 96.39,499.77 95.03,500.38"/>
    </edge>
    <edge id=":1682379358_0" function="internal">
        <lane id=":1682379358_0_0" index="0" disallow="tram rail_urban rail rail_electric ship" speed="13.89" length="4.82" shape="976.79,614.59 975.95,615.82 975.12,616.22 974.30,615.80 973.49,614.55"/>
    </edge>
    <edge id=":1682379376_0" function="internal">
        <lane id=":1682379376_0_0" index="0" disallow="tram rail_urban rail rail_electric ship" speed="13.89" length="4.82" shape="552.86,608.12 553.93,609.16 554.19,610.04 553.64,610.78 552.28,611.37"/>
    </edge>
    <edge id=":1682379482_0" function="internal">
        <lane id=":1682379482_0_0" index="0" disallow="tram rail_urban rail rail_electric ship" speed="13.89" length="6.09" shape="594.06,581.94 588.08,580.80"/>
    </edge>
    <edge id=":1682379482_1" function="internal">
        <lane id=":1682379482_1_0" index="0" disallow="tram rail_urban rail rail_electric ship" speed="18.05" length="2.86" shape="594.06,581.94 592.91,581.29 592.22,579.92"/>
    </edge>
    <edge id=":1682379482_2" function="internal">
        <lane id=":1682379482_2_0" index="0" disallow="tram rail_urban rail rail_electric ship" speed="13.89" length="2.41" shape="594.06,581.94 593.01,580.89 592.77,579.99"/>
    </edge>
    <edge id=":1682379482_6" function="internal">
        <lane id=":1682379482_6_0" index="0" speed="18.05" length="4.96" shape="592.22,579.92 591.99,577.82 592.21,574.98"/>
    </edge>
    <edge id=":1682379482_7" function="internal">
        <lane id=":1682379482_7_0" index="0" speed="13.89" length="2.41" shape="592.77,579.99 593.34,579.27 594.72,578.71"/>
    </edge>
    <edge id=":1682379482_3" function="internal">
        <lane id=":1682379482_3_0" index="0" disallow="tram rail_urban rail rail_electric ship" speed="18.05" length="5.04" shape="588.66,577.55 590.05,577.60 591.10,577.19 591.82,576.32 592.21,574.98"/>
    </edge>
    <edge id=":1682379482_4" function="internal">
        <lane id=":1682379482_4_0" index="0" disallow="tram rail_urban rail rail_electric ship" speed="13.89" length="6.16" shape="588.66,577.55 594.72,578.71"/>
    </edge>
    <edge id=":1682379482_5" function="internal">
        <lane id=":1682379482_5_0" index="0" disallow="tram rail_urban rail rail_electric ship" speed="13.89" length="2.41" shape="588.66,577.55 589.73,578.58 589.99,579.47"/>
    </edge>
    <edge id=":1682379482_8" function="internal">
        <lane id=":1682379482_8_0" index="0" speed="13.89" length="2.41" shape="589.99,579.47 589.44,580.21 588.08,580.80"/>
    </edge>
    <edge id=":1682379512_0" function="internal">
        <lane id=":1682379512_0_0" index="0" disallow="tram rail_urban rail rail_electric ship" speed="13.89" length="9.43" shape="977.42,562.37 977.21,571.80"/>
    </edge>
    <edge id=":1682379512_1" function="internal">
        <lane id=":1682379512_1_0" index="0" disallow="tram rail_urban rail rail_electric ship" speed="13.89" length="5.29" shape="977.42,562.37 976.89,565.35 975.61,567.22"/>
    </edge>
    <edge id=":1682379512_2" function="internal">
        <lane id=":1682379512_2_0" index="0" disallow="tram rail_urban rail rail_electric ship" speed="13.89" length="2.41" shape="977.42,562.37 976.55,563.58 975.72,563.97"/>
    </edge>
    <edge id=":1682379512_9" function="internal">
        <lane id=":1682379512_9_0" index="0" speed="13.89" length="5.59" shape="975.61,567.22 975.53,567.34 973.33,568.34 970.31,568.35"/>
    </edge>
    <edge id=":1682379512_10" function="internal">
        <lane id=":1682379512_10_0" index="0" speed="13.89" length="2.41" shape="975.72,563.97 974.91,563.53 974.12,562.26"/>
    </edge>
    <edge id=":1682379512_3" function="internal">
        <lane id=":1682379512_3_0" index="0" disallow="tram rail_urban rail rail_electric ship" speed="13.89" length="5.13" shape="970.77,565.09 972.19,565.08 973.23,564.61 973.87,563.67 974.12,562.26"/>
    </edge>
    <edge id=":1682379512_4" function="internal">
        <lane id=":1682379512_4_0" index="0" disallow="tram rail_urban rail rail_electric ship" speed="13.89" length="10.33" shape="970.77,565.09 973.61,565.85 975.63,567.22 976.83,569.20 977.21,571.80"/>
    </edge>
    <edge id=":1682379512_5" function="internal">
        <lane id=":1682379512_5_0" index="0" disallow="tram rail_urban rail rail_electric ship" speed="13.89" length="4.82" shape="970.77,565.09 971.88,566.07 972.17,566.95 971.65,567.71 970.31,568.35"/>
    </edge>
    <edge id=":1682379512_6" function="internal">
        <lane id=":1682379512_6_0" index="0" disallow="tram rail_urban rail rail_electric ship" speed="13.89" length="5.50" shape="973.91,571.77 973.70,570.46 973.02,569.46 971.89,568.76 970.31,568.35"/>
    </edge>
    <edge id=":1682379512_7" function="internal">
        <lane id=":1682379512_7_0" index="0" disallow="tram rail_urban rail rail_electric ship" speed="13.89" length="9.51" shape="973.91,571.77 974.12,562.26"/>
    </edge>
    <edge id=":1682379512_8" function="internal">
        <lane id=":1682379512_8_0" index="0" disallow="tram rail_urban rail rail_electric ship" speed="13.89" length="2.41" shape="973.91,571.77 974.75,570.54 975.58,570.13"/>
    </edge>
    <edge id=":1682379512_11" function="internal">
        <lane id=":1682379512_11_0" index="0" speed="13.89" length="2.41" shape="975.58,570.13 976.40,570.55 977.21,571.80"/>
    </edge>
    <edge id=":1682379547_0" function="internal">
        <lane id=":1682379547_0_0" index="0" disallow="tram rail_urban rail rail_electric ship" speed="13.89" length="9.04" shape="979.51,512.44 979.16,515.10 978.97,516.93 978.86,518.76 978.76,521.44"/>
    </edge>
    <edge id=":1682379547_1" function="internal">
        <lane id=":1682379547_1_0" index="0" disallow="tram rail_urban rail rail_electric ship" speed="13.89" length="5.16" shape="979.51,512.44 978.75,515.16 977.30,516.99"/>
    </edge>
    <edge id=":1682379547_2" function="internal">
        <lane id=":1682379547_2_0" index="0" disallow="tram rail_urban rail rail_electric ship" speed="13.89" length="2.41" shape="979.51,512.44 978.53,513.56 977.66,513.86"/>
    </edge>
    <edge id=":1682379547_9" function="internal">
        <lane id=":1682379547_9_0" index="0" speed="13.89" length="5.16" shape="977.30,516.99 975.17,517.92 972.34,517.96"/>
    </edge>
    <edge id=":1682379547_10" function="internal">
        <lane id=":1682379547_10_0" index="0" speed="13.89" length="2.41" shape="977.66,513.86 976.89,513.35 976.23,512.01"/>
    </edge>
    <edge id=":1682379547_3" function="internal">
        <lane id=":1682379547_3_0" index="0" disallow="tram rail_urban rail rail_electric ship" speed="13.89" length="5.00" shape="972.76,514.69 974.13,514.67 975.17,514.22 975.87,513.33 976.23,512.01"/>
    </edge>
    <edge id=":1682379547_4" function="internal">
        <lane id=":1682379547_4_0" index="0" disallow="tram rail_urban rail rail_electric ship" speed="13.89" length="10.09" shape="972.76,514.69 975.46,515.41 977.36,516.78 978.46,518.79 978.76,521.44"/>
    </edge>
    <edge id=":1682379547_5" function="internal">
        <lane id=":1682379547_5_0" index="0" disallow="tram rail_urban rail rail_electric ship" speed="13.89" length="4.82" shape="972.76,514.69 973.88,515.67 974.19,516.54 973.67,517.30 972.34,517.96"/>
    </edge>
    <edge id=":1682379547_6" function="internal">
        <lane id=":1682379547_6_0" index="0" disallow="tram rail_urban rail rail_electric ship" speed="13.89" length="5.13" shape="975.46,521.33 975.30,520.01 974.73,519.01 973.74,518.33 972.34,517.96"/>
    </edge>
    <edge id=":1682379547_7" function="internal">
        <lane id=":1682379547_7_0" index="0" disallow="tram rail_urban rail rail_electric ship" speed="13.89" length="9.36" shape="975.46,521.33 975.56,518.56 975.68,516.66 975.88,514.77 976.23,512.01"/>
    </edge>
    <edge id=":1682379547_8" function="internal">
        <lane id=":1682379547_8_0" index="0" disallow="tram rail_urban rail rail_electric ship" speed="13.89" length="2.41" shape="975.46,521.33 976.33,520.12 977.17,519.74"/>
    </edge>
    <edge id=":1682379547_11" function="internal">
        <lane id=":1682379547_11_0" index="0" speed="13.89" length="2.41" shape="977.17,519.74 977.98,520.18 978.76,521.44"/>
    </edge>
    <edge id=":1682379565_0" function="internal">
        <lane id=":1682379565_0_0" index="0" disallow="tram rail_urban rail rail_electric ship" speed="13.89" length="6.24" shape="603.86,515.27 597.68,514.45"/>
    </edge>
    <edge id=":1682379565_1" function="internal">
        <lane id=":1682379565_1_0" index="0" disallow="tram rail_urban rail rail_electric ship" speed="18.05" length="7.88" shape="603.86,515.27 602.58,514.68 601.77,513.35 601.44,511.28 601.57,508.46"/>
    </edge>
    <edge id=":1682379565_2" function="internal">
        <lane id=":1682379565_2_0" index="0" disallow="tram rail_urban rail rail_electric ship" speed="13.89" length="4.82" shape="603.86,515.27 602.76,514.27 602.47,513.40 602.99,512.64 604.34,512.00"/>
    </edge>
    <edge id=":1682379565_3" function="internal">
        <lane id=":1682379565_3_0" index="0" disallow="tram rail_urban rail rail_electric ship" speed="18.05" length="5.05" shape="598.08,511.17 599.47,511.14 600.52,510.68 601.22,509.79 601.57,508.46"/>
    </edge>
    <edge id=":1682379565_4" function="internal">
        <lane id=":1682379565_4_0" index="0" disallow="tram rail_urban rail rail_electric ship" speed="13.89" length="6.31" shape="598.08,511.17 604.34,512.00"/>
    </edge>
    <edge id=":1682379565_5" function="internal">
        <lane id=":1682379565_5_0" index="0" disallow="tram rail_urban rail rail_electric ship" speed="13.89" length="4.82" shape="598.08,511.17 599.21,512.14 599.52,513.01 599.01,513.78 597.68,514.45"/>
    </edge>
    <edge id=":1682379565_6" function="internal">
        <lane id=":1682379565_6_0" index="0" disallow="tram rail_urban rail rail_electric ship" speed="18.05" length="5.02" shape="600.35,517.93 600.35,516.54 599.90,515.50 599.01,514.80 597.68,514.45"/>
    </edge>
    <edge id=":1682379565_7" function="internal">
        <lane id=":1682379565_7_0" index="0" disallow="tram rail_urban rail rail_electric ship" speed="22.22" length="9.54" shape="600.35,517.93 601.57,508.46"/>
    </edge>
    <edge id=":1682379565_8" function="internal">
        <lane id=":1682379565_8_0" index="0" disallow="tram rail_urban rail rail_electric ship" speed="18.05" length="7.88" shape="600.35,517.93 600.94,515.17 601.80,513.26 602.93,512.21 604.34,512.00"/>
    </edge>
    <edge id=":1682379609_0" function="internal">
        <lane id=":1682379609_0_0" index="0" disallow="tram rail_urban rail rail_electric ship" speed="13.89" length="5.22" shape="339.90,478.94 338.54,478.96 337.49,479.45 336.75,480.41 336.31,481.83"/>
    </edge>
    <edge id=":1682379609_1" function="internal">
        <lane id=":1682379609_1_0" index="0" disallow="tram rail_urban rail rail_electric ship" speed="13.89" length="9.55" shape="339.90,478.94 330.42,477.76"/>
    </edge>
    <edge id=":1682379609_2" function="internal">
        <lane id=":1682379609_2_0" index="0" disallow="tram rail_urban rail rail_electric ship" speed="13.89" length="5.10" shape="339.90,478.94 337.25,478.17 335.42,476.70"/>
    </edge>
    <edge id=":1682379609_3" function="internal">
        <lane id=":1682379609_3_0" index="0" disallow="tram rail_urban rail rail_electric ship" speed="13.89" length="2.41" shape="339.90,478.94 338.79,477.95 338.49,477.08"/>
    </edge>
    <edge id=":1682379609_16" function="internal">
        <lane id=":1682379609_16_0" index="0" speed="13.89" length="5.23" shape="335.42,476.70 334.42,474.55 334.25,471.70"/>
    </edge>
    <edge id=":1682379609_17" function="internal">
        <lane id=":1682379609_17_0" index="0" speed="13.89" length="2.41" shape="338.49,477.08 339.01,476.32 340.35,475.67"/>
    </edge>
    <edge id=":1682379609_4" function="internal">
        <lane id=":1682379609_4_0" index="0" disallow="tram rail_urban rail rail_electric ship" speed="13.89" length="5.25" shape="337.54,471.95 337.62,473.42 338.12,474.53 339.03,475.28 340.35,475.67"/>
    </edge>
    <edge id=":1682379609_5" function="internal">
        <lane id=":1682379609_5_0" index="0" disallow="tram rail_urban rail rail_electric ship" speed="13.89" length="9.97" shape="337.54,471.95 337.31,474.90 337.10,476.91 336.81,478.92 336.31,481.83"/>
    </edge>
    <edge id=":1682379609_6" function="internal">
        <lane id=":1682379609_6_0" index="0" disallow="tram rail_urban rail rail_electric ship" speed="13.89" length="10.57" shape="337.54,471.95 336.91,474.77 335.51,476.67 333.35,477.67 330.42,477.76"/>
    </edge>
    <edge id=":1682379609_7" function="internal">
        <lane id=":1682379609_7_0" index="0" disallow="tram rail_urban rail rail_electric ship" speed="13.89" length="4.82" shape="337.54,471.95 336.63,473.12 335.77,473.47 334.98,472.99 334.25,471.70"/>
    </edge>
    <edge id=":1682379609_8" function="internal">
        <lane id=":1682379609_8_0" index="0" disallow="tram rail_urban rail rail_electric ship" speed="13.89" length="5.12" shape="330.78,474.48 332.21,474.44 333.26,473.96 333.95,473.05 334.25,471.70"/>
    </edge>
    <edge id=":1682379609_9" function="internal">
        <lane id=":1682379609_9_0" index="0" disallow="tram rail_urban rail rail_electric ship" speed="13.89" length="9.65" shape="330.78,474.48 340.35,475.67"/>
    </edge>
    <edge id=":1682379609_10" function="internal">
        <lane id=":1682379609_10_0" index="0" disallow="tram rail_urban rail rail_electric ship" speed="13.89" length="5.43" shape="330.78,474.48 333.63,475.22 335.50,476.69 335.54,476.79"/>
    </edge>
    <edge id=":1682379609_11" function="internal">
        <lane id=":1682379609_11_0" index="0" disallow="tram rail_urban rail rail_electric ship" speed="13.89" length="2.41" shape="330.78,474.48 331.92,475.44 332.24,476.31"/>
    </edge>
    <edge id=":1682379609_18" function="internal">
        <lane id=":1682379609_18_0" index="0" speed="13.89" length="5.21" shape="335.54,476.79 336.39,478.89 336.31,481.83"/>
    </edge>
    <edge id=":1682379609_19" function="internal">
        <lane id=":1682379609_19_0" index="0" speed="13.89" length="2.41" shape="332.24,476.31 331.74,477.08 330.42,477.76"/>
    </edge>
    <edge id=":1682379609_12" function="internal">
        <lane id=":1682379609_12_0" index="0" disallow="tram rail_urban rail rail_electric ship" speed="13.89" length="5.08" shape="333.06,481.27 333.10,479.87 332.67,478.82 331.78,478.12 330.42,477.76"/>
    </edge>
    <edge id=":1682379609_13" function="internal">
        <lane id=":1682379609_13_0" index="0" disallow="tram rail_urban rail rail_electric ship" speed="13.89" length="9.66" shape="333.06,481.27 333.54,478.44 333.83,476.50 334.03,474.55 334.25,471.70"/>
    </edge>
    <edge id=":1682379609_14" function="internal">
        <lane id=":1682379609_14_0" index="0" disallow="tram rail_urban rail rail_electric ship" speed="13.89" length="10.41" shape="333.06,481.27 333.93,478.50 335.44,476.64 337.58,475.70 340.35,475.67"/>
    </edge>
    <edge id=":1682379609_15" function="internal">
        <lane id=":1682379609_15_0" index="0" disallow="tram rail_urban rail rail_electric ship" speed="13.89" length="4.82" shape="333.06,481.27 334.08,480.19 334.96,479.93 335.71,480.47 336.31,481.83"/>
    </edge>
    <edge id=":1682379652_0" function="internal">
        <lane id=":1682379652_0_0" index="0" disallow="tram rail_urban rail rail_electric ship" speed="13.89" length="6.29" shape="609.06,471.22 602.83,470.37"/>
    </edge>
    <edge id=":1682379652_1" function="internal">
        <lane id=":1682379652_1_0" index="0" disallow="tram rail_urban rail rail_electric ship" speed="18.05" length="7.88" shape="609.06,471.22 607.75,470.65 606.94,469.33 606.62,467.27 606.80,464.46"/>
    </edge>
    <edge id=":1682379652_2" function="internal">
        <lane id=":1682379652_2_0" index="0" disallow="tram rail_urban rail rail_electric ship" speed="13.89" length="4.82" shape="609.06,471.22 607.94,470.24 607.64,469.37 608.15,468.61 609.48,467.95"/>
    </edge>
    <edge id=":1682379652_3" function="internal">
        <lane id=":1682379652_3_0" index="0" disallow="tram rail_urban rail rail_electric ship" speed="18.05" length="5.01" shape="603.30,467.11 604.68,467.11 605.72,466.67 606.42,465.79 606.80,464.46"/>
    </edge>
    <edge id=":1682379652_4" function="internal">
        <lane id=":1682379652_4_0" index="0" disallow="tram rail_urban rail rail_electric ship" speed="13.89" length="6.24" shape="603.30,467.11 609.48,467.95"/>
    </edge>
    <edge id=":1682379652_5" function="internal">
        <lane id=":1682379652_5_0" index="0" disallow="tram rail_urban rail rail_electric ship" speed="13.89" length="4.82" shape="603.30,467.11 604.41,468.10 604.70,468.97 604.18,469.73 602.83,470.37"/>
    </edge>
    <edge id=":1682379652_6" function="internal">
        <lane id=":1682379652_6_0" index="0" disallow="tram rail_urban rail rail_electric ship" speed="18.05" length="5.11" shape="605.61,473.92 605.57,472.54 605.10,471.48 604.18,470.76 602.83,470.37"/>
    </edge>
    <edge id=":1682379652_7" function="internal">
        <lane id=":1682379652_7_0" index="0" disallow="tram rail_urban rail rail_electric ship" speed="22.22" length="9.53" shape="605.61,473.92 606.80,464.46"/>
    </edge>
    <edge id=":1682379652_8" function="internal">
        <lane id=":1682379652_8_0" index="0" disallow="tram rail_urban rail rail_electric ship" speed="18.05" length="7.88" shape="605.61,473.92 606.13,471.16 606.95,469.24 608.07,468.17 609.48,467.95"/>
    </edge>
    <edge id=":1682379658_0" function="internal">