<?xml version="1.0" encoding="UTF-8"?>

<!-- generated on Wed Mar 29 23:47:55 2017 by SUMO netgenerate Version 0.29.0
<?xml version="1.0" encoding="UTF-8"?>

<configuration xmlns:xsi="http://www.w3.org/2001/XMLSchema-instance" xsi:noNamespaceSchemaLocation="http://sumo.dlr.de/xsd/netgenerateConfiguration.xsd">

    <grid_network>
        <grid value="true"/>
        <grid.number value="3"/>
        <grid.length value="150"/>
    </grid_network>

    <output>
        <output-file value="map10.net.xml"/>
    </output>

    <tls_building>
        <tls.guess value="true"/>
    </tls_building>

    <building_defaults>
        <default.speed value="20"/>
    </building_defaults>

</configuration>
-->

<net version="0.27" xmlns:xsi="http://www.w3.org/2001/XMLSchema-instance" xsi:noNamespaceSchemaLocation="http://sumo.dlr.de/xsd/net_file.xsd">

    <location netOffset="0.00,0.00" convBoundary="0.00,0.00,300.00,300.00" origBoundary="0.00,0.00,300.00,300.00" projParameter="!"/>

    <edge id=":0/0_0" function="internal">
        <lane id=":0/0_0_0" index="0" speed="20.00" length="7.90" shape="-1.65,3.25 -1.34,1.11 -0.43,-0.43 1.11,-1.34 3.25,-1.65"/>
    </edge>
    <edge id=":0/0_1" function="internal">
        <lane id=":0/0_1_0" index="0" speed="20.00" length="2.80" shape="-1.65,3.25 -0.83,2.01 0.00,1.60 0.35,1.77"/>
    </edge>
    <edge id=":0/0_4" function="internal">
        <lane id=":0/0_4_0" index="0" speed="20.00" length="2.02" shape="0.35,1.77 0.83,2.01 1.65,3.25"/>
    </edge>
    <edge id=":0/0_2" function="internal">
        <lane id=":0/0_2_0" index="0" speed="20.00" length="2.58" shape="3.25,1.65 2.55,1.75 2.05,2.05 1.75,2.55 1.65,3.25"/>
    </edge>
    <edge id=":0/0_3" function="internal">
        <lane id=":0/0_3_0" index="0" speed="20.00" length="2.20" shape="3.25,1.65 2.01,0.83 1.69,0.19"/>
    </edge>
    <edge id=":0/0_5" function="internal">
        <lane id=":0/0_5_0" index="0" speed="20.00" length="2.62" shape="1.69,0.19 1.60,0.00 2.01,-0.82 3.25,-1.65"/>
    </edge>
    <edge id=":0/1_0" function="internal">
        <lane id=":0/1_0_0" index="0" speed="20.00" length="9.50" shape="-1.65,154.75 -1.65,145.25"/>
    </edge>
    <edge id=":0/1_1" function="internal">
        <lane id=":0/1_1_0" index="0" speed="20.00" length="5.28" shape="-1.65,154.75 -1.25,151.95 -0.05,149.95 0.05,149.89"/>
    </edge>
    <edge id=":0/1_2" function="internal">
        <lane id=":0/1_2_0" index="0" speed="20.00" length="2.41" shape="-1.65,154.75 -0.83,153.51 0.00,153.10"/>
    </edge>
    <edge id=":0/1_9" function="internal">
        <lane id=":0/1_9_0" index="0" speed="20.00" length="5.04" shape="0.05,149.89 1.95,148.75 4.75,148.35"/>
    </edge>
    <edge id=":0/1_10" function="internal">
        <lane id=":0/1_10_0" index="0" speed="20.00" length="2.41" shape="0.00,153.10 0.83,153.51 1.65,154.75"/>
    </edge>
    <edge id=":0/1_3" function="internal">
        <lane id=":0/1_3_0" index="0" speed="20.00" length="5.00" shape="4.75,151.65 3.39,151.84 2.43,152.43 1.84,153.39 1.65,154.75"/>
    </edge>
    <edge id=":0/1_4" function="internal">
        <lane id=":0/1_4_0" index="0" speed="20.00" length="10.32" shape="4.75,151.65 1.95,151.25 -0.05,150.05 -1.25,148.05 -1.65,145.25"/>
    </edge>
    <edge id=":0/1_5" function="internal">
        <lane id=":0/1_5_0" index="0" speed="20.00" length="2.69" shape="4.75,151.65 3.51,150.83 3.10,150.00 3.23,149.75"/>
    </edge>
    <edge id=":0/1_11" function="internal">
        <lane id=":0/1_11_0" index="0" speed="20.00" length="2.13" shape="3.23,149.75 3.51,149.18 4.75,148.35"/>
    </edge>
    <edge id=":0/1_6" function="internal">
        <lane id=":0/1_6_0" index="0" speed="20.00" length="5.00" shape="1.65,145.25 1.84,146.61 2.42,147.57 3.39,148.16 4.75,148.35"/>
    </edge>
    <edge id=":0/1_7" function="internal">
        <lane id=":0/1_7_0" index="0" speed="20.00" length="9.50" shape="1.65,145.25 1.65,154.75"/>
    </edge>
    <edge id=":0/1_8" function="internal">
        <lane id=":0/1_8_0" index="0" speed="20.00" length="2.41" shape="1.65,145.25 0.83,146.49 0.00,146.90"/>
    </edge>
    <edge id=":0/1_12" function="internal">
        <lane id=":0/1_12_0" index="0" speed="20.00" length="2.41" shape="0.00,146.90 -0.83,146.49 -1.65,145.25"/>
    </edge>
    <edge id=":0/2_0" function="internal">
        <lane id=":0/2_0_0" index="0" speed="20.00" length="7.90" shape="3.25,301.65 1.11,301.34 -0.43,300.42 -1.34,298.89 -1.65,296.75"/>
    </edge>
    <edge id=":0/2_1" function="internal">
        <lane id=":0/2_1_0" index="0" speed="20.00" length="2.80" shape="3.25,301.65 2.01,300.83 1.60,300.00 1.77,299.65"/>
    </edge>
    <edge id=":0/2_4" function="internal">
        <lane id=":0/2_4_0" index="0" speed="20.00" length="2.02" shape="1.77,299.65 2.01,299.18 3.25,298.35"/>
    </edge>
    <edge id=":0/2_2" function="internal">
        <lane id=":0/2_2_0" index="0" speed="20.00" length="2.58" shape="1.65,296.75 1.75,297.45 2.05,297.95 2.55,298.25 3.25,298.35"/>
    </edge>
    <edge id=":0/2_3" function="internal">
        <lane id=":0/2_3_0" index="0" speed="20.00" length="2.20" shape="1.65,296.75 0.83,297.99 0.19,298.31"/>
    </edge>
    <edge id=":0/2_5" function="internal">
        <lane id=":0/2_5_0" index="0" speed="20.00" length="2.62" shape="0.19,298.31 0.00,298.40 -0.83,297.99 -1.65,296.75"/>
    </edge>
    <edge id=":1/0_0" function="internal">
        <lane id=":1/0_0_0" index="0" speed="20.00" length="5.00" shape="148.35,4.75 148.16,3.39 147.57,2.43 146.61,1.84 145.25,1.65"/>
    </edge>
    <edge id=":1/0_1" function="internal">
        <lane id=":1/0_1_0" index="0" speed="20.00" length="10.32" shape="148.35,4.75 148.75,1.95 149.95,-0.05 151.95,-1.25 154.75,-1.65"/>
    </edge>
    <edge id=":1/0_2" function="internal">
        <lane id=":1/0_2_0" index="0" speed="20.00" length="2.69" shape="148.35,4.75 149.17,3.51 150.00,3.10 150.25,3.23"/>
    </edge>
    <edge id=":1/0_9" function="internal">
        <lane id=":1/0_9_0" index="0" speed="20.00" length="2.13" shape="150.25,3.23 150.82,3.51 151.65,4.75"/>
    </edge>
    <edge id=":1/0_3" function="internal">
        <lane id=":1/0_3_0" index="0" speed="20.00" length="5.00" shape="154.75,1.65 153.39,1.84 152.43,2.42 151.84,3.39 151.65,4.75"/>
    </edge>
    <edge id=":1/0_4" function="internal">
        <lane id=":1/0_4_0" index="0" speed="20.00" length="9.50" shape="154.75,1.65 145.25,1.65"/>
    </edge>
    <edge id=":1/0_5" function="internal">
        <lane id=":1/0_5_0" index="0" speed="20.00" length="2.41" shape="154.75,1.65 153.51,0.83 153.10,0.00"/>
    </edge>
    <edge id=":1/0_10" function="internal">
        <lane id=":1/0_10_0" index="0" speed="20.00" length="2.41" shape="153.10,0.00 153.51,-0.83 154.75,-1.65"/>
    </edge>
    <edge id=":1/0_6" function="internal">
        <lane id=":1/0_6_0" index="0" speed="20.00" length="9.50" shape="145.25,-1.65 154.75,-1.65"/>
    </edge>
    <edge id=":1/0_7" function="internal">
        <lane id=":1/0_7_0" index="0" speed="20.00" length="5.28" shape="145.25,-1.65 148.05,-1.25 150.05,-0.05 150.11,0.05"/>
    </edge>
    <edge id=":1/0_8" function="internal">
        <lane id=":1/0_8_0" index="0" speed="20.00" length="2.41" shape="145.25,-1.65 146.49,-0.83 146.90,0.00"/>
    </edge>
    <edge id=":1/0_11" function="internal">
        <lane id=":1/0_11_0" index="0" speed="20.00" length="5.04" shape="150.11,0.05 151.25,1.95 151.65,4.75"/>
    </edge>
    <edge id=":1/0_12" function="internal">
        <lane id=":1/0_12_0" index="0" speed="20.00" length="2.41" shape="146.90,0.00 146.49,0.83 145.25,1.65"/>
    </edge>
    <edge id=":1/1_0" function="internal">
        <lane id=":1/1_0_0" index="0" speed="20.00" length="5.00" shape="148.35,154.75 148.16,153.39 147.57,152.43 146.61,151.84 145.25,151.65"/>
    </edge>
    <edge id=":1/1_1" function="internal">
        <lane id=":1/1_1_0" index="0" speed="20.00" length="9.50" shape="148.35,154.75 148.35,145.25"/>
    </edge>
    <edge id=":1/1_2" function="internal">
        <lane id=":1/1_2_0" index="0" speed="20.00" length="5.28" shape="148.35,154.75 148.75,151.95 149.95,149.95 150.05,149.89"/>
    </edge>
    <edge id=":1/1_3" function="internal">
        <lane id=":1/1_3_0" index="0" speed="20.00" length="2.41" shape="148.35,154.75 149.17,153.51 150.00,153.10"/>
    </edge>
    <edge id=":1/1_16" function="internal">
        <lane id=":1/1_16_0" index="0" speed="20.00" length="5.04" shape="150.05,149.89 151.95,148.75 154.75,148.35"/>
    </edge>
    <edge id=":1/1_17" function="internal">
        <lane id=":1/1_17_0" index="0" speed="20.00" length="2.41" shape="150.00,153.10 150.82,153.51 151.65,154.75"/>
    </edge>
    <edge id=":1/1_4" function="internal">
        <lane id=":1/1_4_0" index="0" speed="20.00" length="5.00" shape="154.75,151.65 153.39,151.84 152.43,152.43 151.84,153.39 151.65,154.75"/>
    </edge>
    <edge id=":1/1_5" function="internal">
        <lane id=":1/1_5_0" index="0" speed="20.00" length="9.50" shape="154.75,151.65 145.25,151.65"/>
    </edge>
    <edge id=":1/1_6" function="internal">
        <lane id=":1/1_6_0" index="0" speed="20.00" length="5.28" shape="154.75,151.65 151.95,151.25 149.95,150.05 149.89,149.95"/>
    </edge>
    <edge id=":1/1_7" function="internal">
        <lane id=":1/1_7_0" index="0" speed="20.00" length="2.41" shape="154.75,151.65 153.51,150.83 153.10,150.00"/>
    </edge>
    <edge id=":1/1_18" function="internal">
        <lane id=":1/1_18_0" index="0" speed="20.00" length="5.04" shape="149.89,149.95 148.75,148.05 148.35,145.25"/>
    </edge>
    <edge id=":1/1_19" function="internal">
        <lane id=":1/1_19_0" index="0" speed="20.00" length="2.41" shape="153.10,150.00 153.51,149.18 154.75,148.35"/>
    </edge>
    <edge id=":1/1_8" function="internal">
        <lane id=":1/1_8_0" index="0" speed="20.00" length="5.00" shape="151.65,145.25 151.84,146.61 152.43,147.57 153.39,148.16 154.75,148.35"/>
    </edge>
    <edge id=":1/1_9" function="internal">
        <lane id=":1/1_9_0" index="0" speed="20.00" length="9.50" shape="151.65,145.25 151.65,154.75"/>
    </edge>
    <edge id=":1/1_10" function="internal">
        <lane id=":1/1_10_0" index="0" speed="20.00" length="5.28" shape="151.65,145.25 151.25,148.05 150.05,150.05 149.95,150.11"/>
    </edge>
    <edge id=":1/1_11" function="internal">
        <lane id=":1/1_11_0" index="0" speed="20.00" length="2.41" shape="151.65,145.25 150.83,146.49 150.00,146.90"/>
    </edge>
    <edge id=":1/1_20" function="internal">
        <lane id=":1/1_20_0" index="0" speed="20.00" length="5.04" shape="149.95,150.11 148.05,151.25 145.25,151.65"/>
    </edge>
    <edge id=":1/1_21" function="internal">
        <lane id=":1/1_21_0" index="0" speed="20.00" length="2.41" shape="150.00,146.90 149.18,146.49 148.35,145.25"/>
    </edge>
    <edge id=":1/1_12" function="internal">
        <lane id=":1/1_12_0" index="0" speed="20.00" length="5.00" shape="145.25,148.35 146.61,148.16 147.57,147.57 148.16,146.61 148.35,145.25"/>
    </edge>
    <edge id=":1/1_13" function="internal">
        <lane id=":1/1_13_0" index="0" speed="20.00" length="9.50" shape="145.25,148.35 154.75,148.35"/>
    </edge>
    <edge id=":1/1_14" function="internal">
        <lane id=":1/1_14_0" index="0" speed="20.00" length="5.28" shape="145.25,148.35 148.05,148.75 150.05,149.95 150.11,150.05"/>
    </edge>
    <edge id=":1/1_15" function="internal">
        <lane id=":1/1_15_0" index="0" speed="20.00" length="2.41" shape="145.25,148.35 146.49,149.17 146.90,150.00"/>
    </edge>
    <edge id=":1/1_22" function="internal">
        <lane id=":1/1_22_0" index="0" speed="20.00" length="5.04" shape="150.11,150.05 151.25,151.95 151.65,154.75"/>
    </edge>
    <edge id=":1/1_23" function="internal">
        <lane id=":1/1_23_0" index="0" speed="20.00" length="2.41" shape="146.90,150.00 146.49,150.82 145.25,151.65"/>
    </edge>
    <edge id=":1/2_0" function="internal">
        <lane id=":1/2_0_0" index="0" speed="20.00" length="9.50" shape="154.75,301.65 145.25,301.65"/>
    </edge>
    <edge id=":1/2_1" function="internal">
        <lane id=":1/2_1_0" index="0" speed="20.00" length="5.28" shape="154.75,301.65 151.95,301.25 149.95,300.05 149.89,299.95"/>
    </edge>
    <edge id=":1/2_2" function="internal">
        <lane id=":1/2_2_0" index="0" speed="20.00" length="2.41" shape="154.75,301.65 153.51,300.83 153.10,300.00"/>
    </edge>
    <edge id=":1/2_9" function="internal">
        <lane id=":1/2_9_0" index="0" speed="20.00" length="5.04" shape="149.89,299.95 148.75,298.05 148.35,295.25"/>
    </edge>
    <edge id=":1/2_10" function="internal">
        <lane id=":1/2_10_0" index="0" speed="20.00" length="2.41" shape="153.10,300.00 153.51,299.18 154.75,298.35"/>
    </edge>
    <edge id=":1/2_3" function="internal">
        <lane id=":1/2_3_0" index="0" speed="20.00" length="5.00" shape="151.65,295.25 151.84,296.61 152.43,297.58 153.39,298.16 154.75,298.35"/>
    </edge>
    <edge id=":1/2_4" function="internal">
        <lane id=":1/2_4_0" index="0" speed="20.00" length="10.32" shape="151.65,295.25 151.25,298.05 150.05,300.05 148.05,301.25 145.25,301.65"/>
    </edge>
    <edge id=":1/2_5" function="internal">
        <lane id=":1/2_5_0" index="0" speed="20.00" length="2.69" shape="151.65,295.25 150.83,296.49 150.00,296.90 149.75,296.77"/>
    </edge>
    <edge id=":1/2_11" function="internal">
        <lane id=":1/2_11_0" index="0" speed="20.00" length="2.13" shape="149.75,296.77 149.18,296.49 148.35,295.25"/>
    </edge>
    <edge id=":1/2_6" function="internal">
        <lane id=":1/2_6_0" index="0" speed="20.00" length="5.00" shape="145.25,298.35 146.61,298.16 147.57,297.58 148.16,296.61 148.35,295.25"/>
    </edge>
    <edge id=":1/2_7" function="internal">
        <lane id=":1/2_7_0" index="0" speed="20.00" length="9.50" shape="145.25,298.35 154.75,298.35"/>
    </edge>
    <edge id=":1/2_8" function="internal">
        <lane id=":1/2_8_0" index="0" speed="20.00" length="2.41" shape="145.25,298.35 146.49,299.17 146.90,300.00"/>
    </edge>
    <edge id=":1/2_12" function="internal">
        <lane id=":1/2_12_0" index="0" speed="20.00" length="2.41" shape="146.90,300.00 146.49,300.82 145.25,301.65"/>
    </edge>
    <edge id=":2/0_0" function="internal">
        <lane id=":2/0_0_0" index="0" speed="20.00" length="2.58" shape="298.35,3.25 298.25,2.55 297.95,2.05 297.45,1.75 296.75,1.65"/>
    </edge>
    <edge id=":2/0_1" function="internal">
        <lane id=":2/0_1_0" index="0" speed="20.00" length="2.20" shape="298.35,3.25 299.17,2.01 299.81,1.69"/>
    </edge>
    <edge id=":2/0_4" function="internal">
        <lane id=":2/0_4_0" index="0" speed="20.00" length="2.62" shape="299.81,1.69 300.00,1.60 300.82,2.01 301.65,3.25"/>
    </edge>
    <edge id=":2/0_2" function="internal">
        <lane id=":2/0_2_0" index="0" speed="20.00" length="7.90" shape="296.75,-1.65 298.89,-1.34 300.42,-0.43 301.34,1.11 301.65,3.25"/>
    </edge>
    <edge id=":2/0_3" function="internal">
        <lane id=":2/0_3_0" index="0" speed="20.00" length="2.80" shape="296.75,-1.65 297.99,-0.83 298.40,0.00 298.23,0.35"/>
    </edge>
    <edge id=":2/0_5" function="internal">
        <lane id=":2/0_5_0" index="0" speed="20.00" length="2.02" shape="298.23,0.35 297.99,0.83 296.75,1.65"/>
    </edge>
    <edge id=":2/1_0" function="internal">
        <lane id=":2/1_0_0" index="0" speed="20.00" length="5.00" shape="298.35,154.75 298.16,153.39 297.58,152.43 296.61,151.84 295.25,151.65"/>
    </edge>
    <edge id=":2/1_1" function="internal">
        <lane id=":2/1_1_0" index="0" speed="20.00" length="9.50" shape="298.35,154.75 298.35,145.25"/>
    </edge>
    <edge id=":2/1_2" function="internal">
        <lane id=":2/1_2_0" index="0" speed="20.00" length="2.41" shape="298.35,154.75 299.17,153.51 300.00,153.10"/>
    </edge>
    <edge id=":2/1_9" function="internal">
        <lane id=":2/1_9_0" index="0" speed="20.00" length="2.41" shape="300.00,153.10 300.82,153.51 301.65,154.75"/>
    </edge>
    <edge id=":2/1_3" function="internal">
        <lane id=":2/1_3_0" index="0" speed="20.00" length="9.50" shape="301.65,145.25 301.65,154.75"/>
    </edge>
    <edge id=":2/1_4" function="internal">
        <lane id=":2/1_4_0" index="0" speed="20.00" length="5.28" shape="301.65,145.25 301.25,148.05 300.05,150.05 299.95,150.11"/>
    </edge>
    <edge id=":2/1_5" function="internal">
        <lane id=":2/1_5_0" index="0" speed="20.00" length="2.41" shape="301.65,145.25 300.83,146.49 300.00,146.90"/>
    </edge>
    <edge id=":2/1_10" function="internal">
        <lane id=":2/1_10_0" index="0" speed="20.00" length="5.04" shape="299.95,150.11 298.05,151.25 295.25,151.65"/>
    </edge>
    <edge id=":2/1_11" function="internal">
        <lane id=":2/1_11_0" index="0" speed="20.00" length="2.41" shape="300.00,146.90 299.18,146.49 298.35,145.25"/>
    </edge>
    <edge id=":2/1_6" function="internal">
        <lane id=":2/1_6_0" index="0" speed="20.00" length="5.00" shape="295.25,148.35 296.61,148.16 297.58,147.57 298.16,146.61 298.35,145.25"/>
    </edge>
    <edge id=":2/1_7" function="internal">
        <lane id=":2/1_7_0" index="0" speed="20.00" length="10.32" shape="295.25,148.35 298.05,148.75 300.05,149.95 301.25,151.95 301.65,154.75"/>
    </edge>
    <edge id=":2/1_8" function="internal">
        <lane id=":2/1_8_0" index="0" speed="20.00" length="2.69" shape="295.25,148.35 296.49,149.17 296.90,150.00 296.77,150.25"/>
    </edge>
    <edge id=":2/1_12" function="internal">
        <lane id=":2/1_12_0" index="0" speed="20.00" length="2.13" shape="296.77,150.25 296.49,150.82 295.25,151.65"/>
    </edge>
    <edge id=":2/2_0" function="internal">
        <lane id=":2/2_0_0" index="0" speed="20.00" length="7.90" shape="301.65,296.75 301.34,298.89 300.42,300.42 298.89,301.34 296.75,301.65"/>
    </edge>
    <edge id=":2/2_1" function="internal">
        <lane id=":2/2_1_0" index="0" speed="20.00" length="2.80" shape="301.65,296.75 300.83,297.99 300.00,298.40 299.65,298.23"/>
    </edge>
    <edge id=":2/2_4" function="internal">
        <lane id=":2/2_4_0" index="0" speed="20.00" length="2.02" shape="299.65,298.23 299.18,297.99 298.35,296.75"/>
    </edge>
    <edge id=":2/2_2" function="internal">
        <lane id=":2/2_2_0" index="0" speed="20.00" length="2.58" shape="296.75,298.35 297.45,298.25 297.95,297.95 298.25,297.45 298.35,296.75"/>
    </edge>
    <edge id=":2/2_3" function="internal">
        <lane id=":2/2_3_0" index="0" speed="20.00" length="2.20" shape="296.75,298.35 297.99,299.17 298.31,299.81"/>
    </edge>
    <edge id=":2/2_5" function="internal">
        <lane id=":2/2_5_0" index="0" speed="20.00" length="2.62" shape="298.31,299.81 298.40,300.00 297.99,300.82 296.75,301.65"/>
    </edge>

    <edge id="0/0to0/1" from="0/0" to="0/1" priority="-1">
        <lane id="0/0to0/1_0" index="0" speed="20.00" length="142.00" shape="1.65,3.25 1.65,145.25"/>
    </edge>
    <edge id="0/0to1/0" from="0/0" to="1/0" priority="-1">
        <lane id="0/0to1/0_0" index="0" speed="20.00" length="142.00" shape="3.25,-1.65 145.25,-1.65"/>
    </edge>
    <edge id="0/1to0/0" from="0/1" to="0/0" priority="-1">
        <lane id="0/1to0/0_0" index="0" speed="20.00" length="142.00" shape="-1.65,145.25 -1.65,3.25"/>
    </edge>
    <edge id="0/1to0/2" from="0/1" to="0/2" priority="-1">
        <lane id="0/1to0/2_0" index="0" speed="20.00" length="142.00" shape="1.65,154.75 1.65,296.75"/>
    </edge>
    <edge id="0/1to1/1" from="0/1" to="1/1" priority="-1">
        <lane id="0/1to1/1_0" index="0" speed="20.00" length="140.50" shape="4.75,148.35 145.25,148.35"/>
    </edge>
    <edge id="0/2to0/1" from="0/2" to="0/1" priority="-1">
        <lane id="0/2to0/1_0" index="0" speed="20.00" length="142.00" shape="-1.65,296.75 -1.65,154.75"/>
    </edge>
    <edge id="0/2to1/2" from="0/2" to="1/2" priority="-1">
        <lane id="0/2to1/2_0" index="0" speed="20.00" length="142.00" shape="3.25,298.35 145.25,298.35"/>
    </edge>
    <edge id="1/0to0/0" from="1/0" to="0/0" priority="-1">
        <lane id="1/0to0/0_0" index="0" speed="20.00" length="142.00" shape="145.25,1.65 3.25,1.65"/>
    </edge>
    <edge id="1/0to1/1" from="1/0" to="1/1" priority="-1">
        <lane id="1/0to1/1_0" index="0" speed="20.00" length="140.50" shape="151.65,4.75 151.65,145.25"/>
    </edge>
    <edge id="1/0to2/0" from="1/0" to="2/0" priority="-1">
        <lane id="1/0to2/0_0" index="0" speed="20.00" length="142.00" shape="154.75,-1.65 296.75,-1.65"/>
    </edge>
    <edge id="1/1to0/1" from="1/1" to="0/1" priority="-1">
        <lane id="1/1to0/1_0" index="0" speed="20.00" length="140.50" shape="145.25,151.65 4.75,151.65"/>
    </edge>
    <edge id="1/1to1/0" from="1/1" to="1/0" priority="-1">
        <lane id="1/1to1/0_0" index="0" speed="20.00" length="140.50" shape="148.35,145.25 148.35,4.75"/>
    </edge>
    <edge id="1/1to1/2" from="1/1" to="1/2" priority="-1">
        <lane id="1/1to1/2_0" index="0" speed="20.00" length="140.50" shape="151.65,154.75 151.65,295.25"/>
    </edge>
    <edge id="1/1to2/1" from="1/1" to="2/1" priority="-1">
        <lane id="1/1to2/1_0" index="0" speed="20.00" length="140.50" shape="154.75,148.35 295.25,148.35"/>
    </edge>
    <edge id="1/2to0/2" from="1/2" to="0/2" priority="-1">
        <lane id="1/2to0/2_0" index="0" speed="20.00" length="142.00" shape="145.25,301.65 3.25,301.65"/>
    </edge>
    <edge id="1/2to1/1" from="1/2" to="1/1" priority="-1">
        <lane id="1/2to1/1_0" index="0" speed="20.00" length="140.50" shape="148.35,295.25 148.35,154.75"/>
    </edge>
    <edge id="1/2to2/2" from="1/2" to="2/2" priority="-1">
        <lane id="1/2to2/2_0" index="0" speed="20.00" length="142.00" shape="154.75,298.35 296.75,298.35"/>
    </edge>
    <edge id="2/0to1/0" from="2/0" to="1/0" priority="-1">
        <lane id="2/0to1/0_0" index="0" speed="20.00" length="142.00" shape="296.75,1.65 154.75,1.65"/>
    </edge>
    <edge id="2/0to2/1" from="2/0" to="2/1" priority="-1">
        <lane id="2/0to2/1_0" index="0" speed="20.00" length="142.00" shape="301.65,3.25 301.65,145.25"/>
    </edge>
    <edge id="2/1to1/1" from="2/1" to="1/1" priority="-1">
        <lane id="2/1to1/1_0" index="0" speed="20.00" length="140.50" shape="295.25,151.65 154.75,151.65"/>
    </edge>
    <edge id="2/1to2/0" from="2/1" to="2/0" priority="-1">
        <lane id="2/1to2/0_0" index="0" speed="20.00" length="142.00" shape="298.35,145.25 298.35,3.25"/>
    </edge>
    <edge id="2/1to2/2" from="2/1" to="2/2" priority="-1">
        <lane id="2/1to2/2_0" index="0" speed="20.00" length="142.00" shape="301.65,154.75 301.65,296.75"/>
    </edge>
    <edge id="2/2to1/2" from="2/2" to="1/2" priority="-1">
        <lane id="2/2to1/2_0" index="0" speed="20.00" length="142.00" shape="296.75,301.65 154.75,301.65"/>
    </edge>
    <edge id="2/2to2/1" from="2/2" to="2/1" priority="-1">
        <lane id="2/2to2/1_0" index="0" speed="20.00" length="142.00" shape="298.35,296.75 298.35,154.75"/>
    </edge>

    <tlLogic id="0/1" type="static" programID="0" offset="0">
        <phase duration="33" state="GggrrrGGg"/>
        <phase duration="6" state="yggrrryyg"/>
        <phase duration="6" state="rGGrrrrrG"/>
        <phase duration="6" state="ryyrrrrry"/>
        <phase duration="33" state="rrrGGgGrr"/>
        <phase duration="6" state="rrryyyyrr"/>
    </tlLogic>
    <tlLogic id="1/0" type="static" programID="0" offset="0">
        <phase duration="33" state="rrrGGgGgg"/>
        <phase duration="6" state="rrryygygg"/>
        <phase duration="6" state="rrrrrGrGG"/>
        <phase duration="6" state="rrrrryryy"/>
        <phase duration="33" state="GGgGrrrrr"/>
        <phase duration="6" state="yyyyrrrrr"/>
    </tlLogic>
    <tlLogic id="1/1" type="static" programID="0" offset="0">
        <phase duration="27" state="GGggrrrrGGggrrrr"/>
        <phase duration="6" state="yyggrrrryyggrrrr"/>
        <phase duration="6" state="rrGGrrrrrrGGrrrr"/>
        <phase duration="6" state="rryyrrrrrryyrrrr"/>
        <phase duration="27" state="rrrrGGggrrrrGGgg"/>
        <phase duration="6" state="rrrryyggrrrryygg"/>
        <phase duration="6" state="rrrrrrGGrrrrrrGG"/>
        <phase duration="6" state="rrrrrryyrrrrrryy"/>
    </tlLogic>
    <tlLogic id="1/2" type="static" programID="0" offset="0">
        <phase duration="33" state="GggrrrGGg"/>
        <phase duration="6" state="yggrrryyg"/>
        <phase duration="6" state="rGGrrrrrG"/>
        <phase duration="6" state="ryyrrrrry"/>
        <phase duration="33" state="rrrGGgGrr"/>
        <phase duration="6" state="rrryyyyrr"/>
    </tlLogic>
    <tlLogic id="2/1" type="static" programID="0" offset="0">
        <phase duration="33" state="GGgGggrrr"/>
        <phase duration="6" state="yygyggrrr"/>
        <phase duration="6" state="rrGrGGrrr"/>
        <phase duration="6" state="rryryyrrr"/>
        <phase duration="33" state="GrrrrrGGg"/>
        <phase duration="6" state="yrrrrryyy"/>
    </tlLogic>

    <junction id="0/0" type="priority" x="0.00" y="0.00" incLanes="0/1to0/0_0 1/0to0/0_0" intLanes=":0/0_0_0 :0/0_4_0 :0/0_2_0 :0/0_5_0" shape="-3.25,3.25 3.25,3.25 3.25,-3.25">
        <request index="0" response="0000" foes="1000" cont="0"/>
        <request index="1" response="0100" foes="0100" cont="1"/>
        <request index="2" response="0000" foes="0010" cont="0"/>
        <request index="3" response="0001" foes="0001" cont="1"/>
    </junction>
    <junction id="0/1" type="traffic_light" x="0.00" y="150.00" incLanes="0/2to0/1_0 1/1to0/1_0 0/0to0/1_0" intLanes=":0/1_0_0 :0/1_9_0 :0/1_10_0 :0/1_3_0 :0/1_4_0 :0/1_11_0 :0/1_6_0 :0/1_7_0 :0/1_12_0" shape="-3.25,154.75 3.25,154.75 4.75,153.25 4.75,146.75 3.25,145.25 -3.25,145.25">
        <request index="0" response="000000000" foes="100010000" cont="0"/>
        <request index="1" response="011000000" foes="011110000" cont="1"/>
        <request index="2" response="010001000" foes="010001000" cont="1"/>
        <request index="3" response="010000000" foes="010000100" cont="0"/>
        <request index="4" response="010000011" foes="110000011" cont="0"/>
        <request index="5" response="001000010" foes="001000010" cont="1"/>
        <request index="6" response="000000000" foes="000100010" cont="0"/>
        <request index="7" response="000000000" foes="000011110" cont="0"/>
        <request index="8" response="000010001" foes="000010001" cont="1"/>
    </junction>
    <junction id="0/2" type="priority" x="0.00" y="300.00" incLanes="1/2to0/2_0 0/1to0/2_0" intLanes=":0/2_0_0 :0/2_4_0 :0/2_2_0 :0/2_5_0" shape="3.25,303.25 3.25,296.75 -3.25,296.75">
        <request index="0" response="0000" foes="1000" cont="0"/>
        <request index="1" response="0100" foes="0100" cont="1"/>
        <request index="2" response="0000" foes="0010" cont="0"/>
        <request index="3" response="0001" foes="0001" cont="1"/>
    </junction>
    <junction id="1/0" type="traffic_light" x="150.00" y="0.00" incLanes="1/1to1/0_0 2/0to1/0_0 0/0to1/0_0" intLanes=":1/0_0_0 :1/0_1_0 :1/0_9_0 :1/0_3_0 :1/0_4_0 :1/0_10_0 :1/0_6_0 :1/0_11_0 :1/0_12_0" shape="146.75,4.75 153.25,4.75 154.75,3.25 154.75,-3.25 145.25,-3.25 145.25,3.25">
        <request index="0" response="000010000" foes="100010000" cont="0"/>
        <request index="1" response="011010000" foes="011110000" cont="0"/>
        <request index="2" response="010001000" foes="010001000" cont="1"/>
        <request index="3" response="000000000" foes="010000100" cont="0"/>
        <request index="4" response="000000000" foes="110000011" cont="0"/>
        <request index="5" response="001000010" foes="001000010" cont="1"/>
        <request index="6" response="000000000" foes="000100010" cont="0"/>
        <request index="7" response="000011000" foes="000011110" cont="1"/>
        <request index="8" response="000010001" foes="000010001" cont="1"/>
    </junction>
    <junction id="1/1" type="traffic_light" x="150.00" y="150.00" incLanes="1/2to1/1_0 2/1to1/1_0 1/0to1/1_0 0/1to1/1_0" intLanes=":1/1_0_0 :1/1_1_0 :1/1_16_0 :1/1_17_0 :1/1_4_0 :1/1_5_0 :1/1_18_0 :1/1_19_0 :1/1_8_0 :1/1_9_0 :1/1_20_0 :1/1_21_0 :1/1_12_0 :1/1_13_0 :1/1_22_0 :1/1_23_0" shape="146.75,154.75 153.25,154.75 154.75,153.25 154.75,146.75 153.25,145.25 146.75,145.25 145.25,146.75 145.25,153.25">
        <request index="0" response="0000000000000000" foes="1000010000100000" cont="0"/>
        <request index="1" response="0000000000000000" foes="0111110001100000" cont="0"/>
        <request index="2" response="0000001100000000" foes="0110001111100000" cont="1"/>
        <request index="3" response="0100001000010000" foes="0100001000010000" cont="1"/>
        <request index="4" response="0000001000000000" foes="0100001000001000" cont="0"/>
        <request index="5" response="0000011000000111" foes="1100011000000111" cont="0"/>
        <request index="6" response="0011011000000110" foes="0011111000000110" cont="1"/>
        <request index="7" response="0010000100000100" foes="0010000100000100" cont="1"/>
        <request index="8" response="0000000000000000" foes="0010000010000100" cont="0"/>
        <request index="9" response="0000000000000000" foes="0110000001111100" cont="0"/>
        <request index="10" response="0000000000000011" foes="1110000001100011" cont="1"/>
        <request index="11" response="0001000001000010" foes="0001000001000010" cont="1"/>
        <request index="12" response="0000000000000010" foes="0000100001000010" cont="0"/>
        <request index="13" response="0000011100000110" foes="0000011111000110" cont="0"/>
        <request index="14" response="0000011000110110" foes="0000011000111110" cont="1"/>
        <request index="15" response="0000010000100001" foes="0000010000100001" cont="1"/>
    </junction>