<?xml version="1.0" encoding="UTF-8"?>

<!-- generated on Thu Mar 30 01:27:05 2017 by SUMO netgenerate Version 0.29.0
<?xml version="1.0" encoding="UTF-8"?>

<configuration xmlns:xsi="http://www.w3.org/2001/XMLSchema-instance" xsi:noNamespaceSchemaLocation="http://sumo.dlr.de/xsd/netgenerateConfiguration.xsd">

    <grid_network>
        <grid value="true"/>
        <grid.number value="5"/>
        <grid.length value="150"/>
    </grid_network>

    <output>
        <output-file value="map10-1.net.xml"/>
    </output>

    <tls_building>
        <tls.guess value="true"/>
    </tls_building>

    <building_defaults>
        <default.speed value="20"/>
    </building_defaults>

</configuration>
-->

<net version="0.27" xmlns:xsi="http://www.w3.org/2001/XMLSchema-instance" xsi:noNamespaceSchemaLocation="http://sumo.dlr.de/xsd/net_file.xsd">

    <location netOffset="0.00,0.00" convBoundary="0.00,0.00,600.00,600.00" origBoundary="0.00,0.00,600.00,600.00" projParameter="!"/>

    <edge id=":0/0_0" function="internal">
        <lane id=":0/0_0_0" index="0" speed="20.00" length="7.90" shape="-1.65,3.25 -1.34,1.11 -0.43,-0.43 1.11,-1.34 3.25,-1.65"/>
    </edge>
    <edge id=":0/0_1" function="internal">
        <lane id=":0/0_1_0" index="0" speed="20.00" length="2.80" shape="-1.65,3.25 -0.83,2.01 0.00,1.60 0.35,1.77"/>
    </edge>
    <edge id=":0/0_4" function="internal">
        <lane id=":0/0_4_0" index="0" speed="20.00" length="2.02" shape="0.35,1.77 0.83,2.01 1.65,3.25"/>
    </edge>
    <edge id=":0/0_2" function="internal">
        <lane id=":0/0_2_0" index="0" speed="20.00" length="2.58" shape="3.25,1.65 2.55,1.75 2.05,2.05 1.75,2.55 1.65,3.25"/>
    </edge>
    <edge id=":0/0_3" function="internal">
        <lane id=":0/0_3_0" index="0" speed="20.00" length="2.20" shape="3.25,1.65 2.01,0.83 1.69,0.19"/>
    </edge>
    <edge id=":0/0_5" function="internal">
        <lane id=":0/0_5_0" index="0" speed="20.00" length="2.62" shape="1.69,0.19 1.60,0.00 2.01,-0.82 3.25,-1.65"/>
    </edge>
    <edge id=":0/1_0" function="internal">
        <lane id=":0/1_0_0" index="0" speed="20.00" length="9.50" shape="-1.65,154.75 -1.65,145.25"/>
    </edge>
    <edge id=":0/1_1" function="internal">
        <lane id=":0/1_1_0" index="0" speed="20.00" length="5.28" shape="-1.65,154.75 -1.25,151.95 -0.05,149.95 0.05,149.89"/>
    </edge>
    <edge id=":0/1_2" function="internal">
        <lane id=":0/1_2_0" index="0" speed="20.00" length="2.41" shape="-1.65,154.75 -0.83,153.51 0.00,153.10"/>
    </edge>
    <edge id=":0/1_9" function="internal">
        <lane id=":0/1_9_0" index="0" speed="20.00" length="5.04" shape="0.05,149.89 1.95,148.75 4.75,148.35"/>
    </edge>
    <edge id=":0/1_10" function="internal">
        <lane id=":0/1_10_0" index="0" speed="20.00" length="2.41" shape="0.00,153.10 0.83,153.51 1.65,154.75"/>
    </edge>
    <edge id=":0/1_3" function="internal">
        <lane id=":0/1_3_0" index="0" speed="20.00" length="5.00" shape="4.75,151.65 3.39,151.84 2.43,152.43 1.84,153.39 1.65,154.75"/>
    </edge>
    <edge id=":0/1_4" function="internal">
        <lane id=":0/1_4_0" index="0" speed="20.00" length="10.32" shape="4.75,151.65 1.95,151.25 -0.05,150.05 -1.25,148.05 -1.65,145.25"/>
    </edge>
    <edge id=":0/1_5" function="internal">
        <lane id=":0/1_5_0" index="0" speed="20.00" length="2.69" shape="4.75,151.65 3.51,150.83 3.10,150.00 3.23,149.75"/>
    </edge>
    <edge id=":0/1_11" function="internal">
        <lane id=":0/1_11_0" index="0" speed="20.00" length="2.13" shape="3.23,149.75 3.51,149.18 4.75,148.35"/>
    </edge>
    <edge id=":0/1_6" function="internal">
        <lane id=":0/1_6_0" index="0" speed="20.00" length="5.00" shape="1.65,145.25 1.84,146.61 2.42,147.57 3.39,148.16 4.75,148.35"/>
    </edge>
    <edge id=":0/1_7" function="internal">
        <lane id=":0/1_7_0" index="0" speed="20.00" length="9.50" shape="1.65,145.25 1.65,154.75"/>
    </edge>
    <edge id=":0/1_8" function="internal">
        <lane id=":0/1_8_0" index="0" speed="20.00" length="2.41" shape="1.65,145.25 0.83,146.49 0.00,146.90"/>
    </edge>
    <edge id=":0/1_12" function="internal">
        <lane id=":0/1_12_0" index="0" speed="20.00" length="2.41" shape="0.00,146.90 -0.83,146.49 -1.65,145.25"/>
    </edge>
    <edge id=":0/2_0" function="internal">
        <lane id=":0/2_0_0" index="0" speed="20.00" length="9.50" shape="-1.65,304.75 -1.65,295.25"/>
    </edge>
    <edge id=":0/2_1" function="internal">
        <lane id=":0/2_1_0" index="0" speed="20.00" length="5.28" shape="-1.65,304.75 -1.25,301.95 -0.05,299.95 0.05,299.89"/>
    </edge>
    <edge id=":0/2_2" function="internal">
        <lane id=":0/2_2_0" index="0" speed="20.00" length="2.41" shape="-1.65,304.75 -0.83,303.51 0.00,303.10"/>
    </edge>
    <edge id=":0/2_9" function="internal">
        <lane id=":0/2_9_0" index="0" speed="20.00" length="5.04" shape="0.05,299.89 1.95,298.75 4.75,298.35"/>
    </edge>
    <edge id=":0/2_10" function="internal">
        <lane id=":0/2_10_0" index="0" speed="20.00" length="2.41" shape="0.00,303.10 0.83,303.51 1.65,304.75"/>
    </edge>
    <edge id=":0/2_3" function="internal">
        <lane id=":0/2_3_0" index="0" speed="20.00" length="5.00" shape="4.75,301.65 3.39,301.84 2.43,302.42 1.84,303.39 1.65,304.75"/>
    </edge>
    <edge id=":0/2_4" function="internal">
        <lane id=":0/2_4_0" index="0" speed="20.00" length="10.32" shape="4.75,301.65 1.95,301.25 -0.05,300.05 -1.25,298.05 -1.65,295.25"/>
    </edge>
    <edge id=":0/2_5" function="internal">
        <lane id=":0/2_5_0" index="0" speed="20.00" length="2.69" shape="4.75,301.65 3.51,300.83 3.10,300.00 3.23,299.75"/>
    </edge>
    <edge id=":0/2_11" function="internal">
        <lane id=":0/2_11_0" index="0" speed="20.00" length="2.13" shape="3.23,299.75 3.51,299.18 4.75,298.35"/>
    </edge>
    <edge id=":0/2_6" function="internal">
        <lane id=":0/2_6_0" index="0" speed="20.00" length="5.00" shape="1.65,295.25 1.84,296.61 2.42,297.58 3.39,298.16 4.75,298.35"/>
    </edge>
    <edge id=":0/2_7" function="internal">
        <lane id=":0/2_7_0" index="0" speed="20.00" length="9.50" shape="1.65,295.25 1.65,304.75"/>
    </edge>
    <edge id=":0/2_8" function="internal">
        <lane id=":0/2_8_0" index="0" speed="20.00" length="2.41" shape="1.65,295.25 0.83,296.49 0.00,296.90"/>
    </edge>
    <edge id=":0/2_12" function="internal">
        <lane id=":0/2_12_0" index="0" speed="20.00" length="2.41" shape="0.00,296.90 -0.83,296.49 -1.65,295.25"/>
    </edge>
    <edge id=":0/3_0" function="internal">
        <lane id=":0/3_0_0" index="0" speed="20.00" length="9.50" shape="-1.65,454.75 -1.65,445.25"/>
    </edge>
    <edge id=":0/3_1" function="internal">
        <lane id=":0/3_1_0" index="0" speed="20.00" length="5.28" shape="-1.65,454.75 -1.25,451.95 -0.05,449.95 0.05,449.89"/>
    </edge>
    <edge id=":0/3_2" function="internal">
        <lane id=":0/3_2_0" index="0" speed="20.00" length="2.41" shape="-1.65,454.75 -0.83,453.51 0.00,453.10"/>
    </edge>
    <edge id=":0/3_9" function="internal">
        <lane id=":0/3_9_0" index="0" speed="20.00" length="5.04" shape="0.05,449.89 1.95,448.75 4.75,448.35"/>
    </edge>
    <edge id=":0/3_10" function="internal">
        <lane id=":0/3_10_0" index="0" speed="20.00" length="2.41" shape="0.00,453.10 0.83,453.51 1.65,454.75"/>
    </edge>
    <edge id=":0/3_3" function="internal">
        <lane id=":0/3_3_0" index="0" speed="20.00" length="5.00" shape="4.75,451.65 3.39,451.84 2.43,452.42 1.84,453.39 1.65,454.75"/>
    </edge>
    <edge id=":0/3_4" function="internal">
        <lane id=":0/3_4_0" index="0" speed="20.00" length="10.32" shape="4.75,451.65 1.95,451.25 -0.05,450.05 -1.25,448.05 -1.65,445.25"/>
    </edge>
    <edge id=":0/3_5" function="internal">
        <lane id=":0/3_5_0" index="0" speed="20.00" length="2.69" shape="4.75,451.65 3.51,450.83 3.10,450.00 3.23,449.75"/>
    </edge>
    <edge id=":0/3_11" function="internal">
        <lane id=":0/3_11_0" index="0" speed="20.00" length="2.13" shape="3.23,449.75 3.51,449.18 4.75,448.35"/>
    </edge>
    <edge id=":0/3_6" function="internal">
        <lane id=":0/3_6_0" index="0" speed="20.00" length="5.00" shape="1.65,445.25 1.84,446.61 2.42,447.58 3.39,448.16 4.75,448.35"/>
    </edge>
    <edge id=":0/3_7" function="internal">
        <lane id=":0/3_7_0" index="0" speed="20.00" length="9.50" shape="1.65,445.25 1.65,454.75"/>
    </edge>
    <edge id=":0/3_8" function="internal">
        <lane id=":0/3_8_0" index="0" speed="20.00" length="2.41" shape="1.65,445.25 0.83,446.49 0.00,446.90"/>
    </edge>
    <edge id=":0/3_12" function="internal">
        <lane id=":0/3_12_0" index="0" speed="20.00" length="2.41" shape="0.00,446.90 -0.83,446.49 -1.65,445.25"/>
    </edge>
    <edge id=":0/4_0" function="internal">
        <lane id=":0/4_0_0" index="0" speed="20.00" length="7.90" shape="3.25,601.65 1.11,601.34 -0.43,600.42 -1.34,598.89 -1.65,596.75"/>
    </edge>
    <edge id=":0/4_1" function="internal">
        <lane id=":0/4_1_0" index="0" speed="20.00" length="2.80" shape="3.25,601.65 2.01,600.82 1.60,600.00 1.77,599.65"/>
    </edge>
    <edge id=":0/4_4" function="internal">
        <lane id=":0/4_4_0" index="0" speed="20.00" length="2.02" shape="1.77,599.65 2.01,599.17 3.25,598.35"/>
    </edge>
    <edge id=":0/4_2" function="internal">
        <lane id=":0/4_2_0" index="0" speed="20.00" length="2.58" shape="1.65,596.75 1.75,597.45 2.05,597.95 2.55,598.25 3.25,598.35"/>
    </edge>
    <edge id=":0/4_3" function="internal">
        <lane id=":0/4_3_0" index="0" speed="20.00" length="2.20" shape="1.65,596.75 0.83,597.99 0.19,598.31"/>
    </edge>
    <edge id=":0/4_5" function="internal">
        <lane id=":0/4_5_0" index="0" speed="20.00" length="2.62" shape="0.19,598.31 0.00,598.40 -0.83,597.99 -1.65,596.75"/>
    </edge>
    <edge id=":1/0_0" function="internal">
        <lane id=":1/0_0_0" index="0" speed="20.00" length="5.00" shape="148.35,4.75 148.16,3.39 147.57,2.43 146.61,1.84 145.25,1.65"/>
    </edge>
    <edge id=":1/0_1" function="internal">
        <lane id=":1/0_1_0" index="0" speed="20.00" length="10.32" shape="148.35,4.75 148.75,1.95 149.95,-0.05 151.95,-1.25 154.75,-1.65"/>
    </edge>
    <edge id=":1/0_2" function="internal">
        <lane id=":1/0_2_0" index="0" speed="20.00" length="2.69" shape="148.35,4.75 149.17,3.51 150.00,3.10 150.25,3.23"/>
    </edge>
    <edge id=":1/0_9" function="internal">
        <lane id=":1/0_9_0" index="0" speed="20.00" length="2.13" shape="150.25,3.23 150.82,3.51 151.65,4.75"/>
    </edge>
    <edge id=":1/0_3" function="internal">
        <lane id=":1/0_3_0" index="0" speed="20.00" length="5.00" shape="154.75,1.65 153.39,1.84 152.43,2.42 151.84,3.39 151.65,4.75"/>
    </edge>
    <edge id=":1/0_4" function="internal">
        <lane id=":1/0_4_0" index="0" speed="20.00" length="9.50" shape="154.75,1.65 145.25,1.65"/>
    </edge>
    <edge id=":1/0_5" function="internal">
        <lane id=":1/0_5_0" index="0" speed="20.00" length="2.41" shape="154.75,1.65 153.51,0.83 153.10,0.00"/>
    </edge>
    <edge id=":1/0_10" function="internal">
        <lane id=":1/0_10_0" index="0" speed="20.00" length="2.41" shape="153.10,0.00 153.51,-0.83 154.75,-1.65"/>
    </edge>
    <edge id=":1/0_6" function="internal">
        <lane id=":1/0_6_0" index="0" speed="20.00" length="9.50" shape="145.25,-1.65 154.75,-1.65"/>
    </edge>
    <edge id=":1/0_7" function="internal">
        <lane id=":1/0_7_0" index="0" speed="20.00" length="5.28" shape="145.25,-1.65 148.05,-1.25 150.05,-0.05 150.11,0.05"/>
    </edge>
    <edge id=":1/0_8" function="internal">
        <lane id=":1/0_8_0" index="0" speed="20.00" length="2.41" shape="145.25,-1.65 146.49,-0.83 146.90,0.00"/>
    </edge>
    <edge id=":1/0_11" function="internal">
        <lane id=":1/0_11_0" index="0" speed="20.00" length="5.04" shape="150.11,0.05 151.25,1.95 151.65,4.75"/>
    </edge>
    <edge id=":1/0_12" function="internal">
        <lane id=":1/0_12_0" index="0" speed="20.00" length="2.41" shape="146.90,0.00 146.49,0.83 145.25,1.65"/>
    </edge>
    <edge id=":1/1_0" function="internal">
        <lane id=":1/1_0_0" index="0" speed="20.00" length="5.00" shape="148.35,154.75 148.16,153.39 147.57,152.43 146.61,151.84 145.25,151.65"/>
    </edge>
    <edge id=":1/1_1" function="internal">
        <lane id=":1/1_1_0" index="0" speed="20.00" length="9.50" shape="148.35,154.75 148.35,145.25"/>
    </edge>
    <edge id=":1/1_2" function="internal">
        <lane id=":1/1_2_0" index="0" speed="20.00" length="5.28" shape="148.35,154.75 148.75,151.95 149.95,149.95 150.05,149.89"/>
    </edge>
    <edge id=":1/1_3" function="internal">
        <lane id=":1/1_3_0" index="0" speed="20.00" length="2.41" shape="148.35,154.75 149.17,153.51 150.00,153.10"/>
    </edge>
    <edge id=":1/1_16" function="internal">
        <lane id=":1/1_16_0" index="0" speed="20.00" length="5.04" shape="150.05,149.89 151.95,148.75 154.75,148.35"/>
    </edge>
    <edge id=":1/1_17" function="internal">
        <lane id=":1/1_17_0" index="0" speed="20.00" length="2.41" shape="150.00,153.10 150.82,153.51 151.65,154.75"/>
    </edge>
    <edge id=":1/1_4" function="internal">
        <lane id=":1/1_4_0" index="0" speed="20.00" length="5.00" shape="154.75,151.65 153.39,151.84 152.43,152.43 151.84,153.39 151.65,154.75"/>
    </edge>
    <edge id=":1/1_5" function="internal">
        <lane id=":1/1_5_0" index="0" speed="20.00" length="9.50" shape="154.75,151.65 145.25,151.65"/>
    </edge>
    <edge id=":1/1_6" function="internal">
        <lane id=":1/1_6_0" index="0" speed="20.00" length="5.28" shape="154.75,151.65 151.95,151.25 149.95,150.05 149.89,149.95"/>
    </edge>
    <edge id=":1/1_7" function="internal">
        <lane id=":1/1_7_0" index="0" speed="20.00" length="2.41" shape="154.75,151.65 153.51,150.83 153.10,150.00"/>
    </edge>
    <edge id=":1/1_18" function="internal">
        <lane id=":1/1_18_0" index="0" speed="20.00" length="5.04" shape="149.89,149.95 148.75,148.05 148.35,145.25"/>
    </edge>
    <edge id=":1/1_19" function="internal">
        <lane id=":1/1_19_0" index="0" speed="20.00" length="2.41" shape="153.10,150.00 153.51,149.18 154.75,148.35"/>
    </edge>
    <edge id=":1/1_8" function="internal">
        <lane id=":1/1_8_0" index="0" speed="20.00" length="5.00" shape="151.65,145.25 151.84,146.61 152.43,147.57 153.39,148.16 154.75,148.35"/>
    </edge>
    <edge id=":1/1_9" function="internal">
        <lane id=":1/1_9_0" index="0" speed="20.00" length="9.50" shape="151.65,145.25 151.65,154.75"/>
    </edge>
    <edge id=":1/1_10" function="internal">
        <lane id=":1/1_10_0" index="0" speed="20.00" length="5.28" shape="151.65,145.25 151.25,148.05 150.05,150.05 149.95,150.11"/>
    </edge>
    <edge id=":1/1_11" function="internal">
        <lane id=":1/1_11_0" index="0" speed="20.00" length="2.41" shape="151.65,145.25 150.83,146.49 150.00,146.90"/>
    </edge>
    <edge id=":1/1_20" function="internal">
        <lane id=":1/1_20_0" index="0" speed="20.00" length="5.04" shape="149.95,150.11 148.05,151.25 145.25,151.65"/>
    </edge>
    <edge id=":1/1_21" function="internal">
        <lane id=":1/1_21_0" index="0" speed="20.00" length="2.41" shape="150.00,146.90 149.18,146.49 148.35,145.25"/>
    </edge>
    <edge id=":1/1_12" function="internal">
        <lane id=":1/1_12_0" index="0" speed="20.00" length="5.00" shape="145.25,148.35 146.61,148.16 147.57,147.57 148.16,146.61 148.35,145.25"/>
    </edge>
    <edge id=":1/1_13" function="internal">
        <lane id=":1/1_13_0" index="0" speed="20.00" length="9.50" shape="145.25,148.35 154.75,148.35"/>
    </edge>
    <edge id=":1/1_14" function="internal">
        <lane id=":1/1_14_0" index="0" speed="20.00" length="5.28" shape="145.25,148.35 148.05,148.75 150.05,149.95 150.11,150.05"/>
    </edge>
    <edge id=":1/1_15" function="internal">
        <lane id=":1/1_15_0" index="0" speed="20.00" length="2.41" shape="145.25,148.35 146.49,149.17 146.90,150.00"/>
    </edge>
    <edge id=":1/1_22" function="internal">
        <lane id=":1/1_22_0" index="0" speed="20.00" length="5.04" shape="150.11,150.05 151.25,151.95 151.65,154.75"/>
    </edge>
    <edge id=":1/1_23" function="internal">
        <lane id=":1/1_23_0" index="0" speed="20.00" length="2.41" shape="146.90,150.00 146.49,150.82 145.25,151.65"/>
    </edge>
    <edge id=":1/2_0" function="internal">
        <lane id=":1/2_0_0" index="0" speed="20.00" length="5.00" shape="148.35,304.75 148.16,303.39 147.57,302.42 146.61,301.84 145.25,301.65"/>
    </edge>
    <edge id=":1/2_1" function="internal">
        <lane id=":1/2_1_0" index="0" speed="20.00" length="9.50" shape="148.35,304.75 148.35,295.25"/>
    </edge>
    <edge id=":1/2_2" function="internal">
        <lane id=":1/2_2_0" index="0" speed="20.00" length="5.28" shape="148.35,304.75 148.75,301.95 149.95,299.95 150.05,299.89"/>
    </edge>
    <edge id=":1/2_3" function="internal">
        <lane id=":1/2_3_0" index="0" speed="20.00" length="2.41" shape="148.35,304.75 149.17,303.51 150.00,303.10"/>
    </edge>
    <edge id=":1/2_16" function="internal">
        <lane id=":1/2_16_0" index="0" speed="20.00" length="5.04" shape="150.05,299.89 151.95,298.75 154.75,298.35"/>
    </edge>
    <edge id=":1/2_17" function="internal">
        <lane id=":1/2_17_0" index="0" speed="20.00" length="2.41" shape="150.00,303.10 150.82,303.51 151.65,304.75"/>
    </edge>
    <edge id=":1/2_4" function="internal">
        <lane id=":1/2_4_0" index="0" speed="20.00" length="5.00" shape="154.75,301.65 153.39,301.84 152.43,302.42 151.84,303.39 151.65,304.75"/>
    </edge>
    <edge id=":1/2_5" function="internal">
        <lane id=":1/2_5_0" index="0" speed="20.00" length="9.50" shape="154.75,301.65 145.25,301.65"/>
    </edge>
    <edge id=":1/2_6" function="internal">
        <lane id=":1/2_6_0" index="0" speed="20.00" length="5.28" shape="154.75,301.65 151.95,301.25 149.95,300.05 149.89,299.95"/>
    </edge>
    <edge id=":1/2_7" function="internal">
        <lane id=":1/2_7_0" index="0" speed="20.00" length="2.41" shape="154.75,301.65 153.51,300.83 153.10,300.00"/>
    </edge>
    <edge id=":1/2_18" function="internal">
        <lane id=":1/2_18_0" index="0" speed="20.00" length="5.04" shape="149.89,299.95 148.75,298.05 148.35,295.25"/>
    </edge>
    <edge id=":1/2_19" function="internal">
        <lane id=":1/2_19_0" index="0" speed="20.00" length="2.41" shape="153.10,300.00 153.51,299.18 154.75,298.35"/>
    </edge>
    <edge id=":1/2_8" function="internal">
        <lane id=":1/2_8_0" index="0" speed="20.00" length="5.00" shape="151.65,295.25 151.84,296.61 152.43,297.58 153.39,298.16 154.75,298.35"/>
    </edge>
    <edge id=":1/2_9" function="internal">
        <lane id=":1/2_9_0" index="0" speed="20.00" length="9.50" shape="151.65,295.25 151.65,304.75"/>
    </edge>
    <edge id=":1/2_10" function="internal">
        <lane id=":1/2_10_0" index="0" speed="20.00" length="5.28" shape="151.65,295.25 151.25,298.05 150.05,300.05 149.95,300.11"/>
    </edge>
    <edge id=":1/2_11" function="internal">
        <lane id=":1/2_11_0" index="0" speed="20.00" length="2.41" shape="151.65,295.25 150.83,296.49 150.00,296.90"/>
    </edge>
    <edge id=":1/2_20" function="internal">
        <lane id=":1/2_20_0" index="0" speed="20.00" length="5.04" shape="149.95,300.11 148.05,301.25 145.25,301.65"/>
    </edge>
    <edge id=":1/2_21" function="internal">
        <lane id=":1/2_21_0" index="0" speed="20.00" length="2.41" shape="150.00,296.90 149.18,296.49 148.35,295.25"/>
    </edge>
    <edge id=":1/2_12" function="internal">
        <lane id=":1/2_12_0" index="0" speed="20.00" length="5.00" shape="145.25,298.35 146.61,298.16 147.57,297.58 148.16,296.61 148.35,295.25"/>
    </edge>
    <edge id=":1/2_13" function="internal">
        <lane id=":1/2_13_0" index="0" speed="20.00" length="9.50" shape="145.25,298.35 154.75,298.35"/>
    </edge>
    <edge id=":1/2_14" function="internal">
        <lane id=":1/2_14_0" index="0" speed="20.00" length="5.28" shape="145.25,298.35 148.05,298.75 150.05,299.95 150.11,300.05"/>
    </edge>
    <edge id=":1/2_15" function="internal">
        <lane id=":1/2_15_0" index="0" speed="20.00" length="2.41" shape="145.25,298.35 146.49,299.17 146.90,300.00"/>
    </edge>
    <edge id=":1/2_22" function="internal">
        <lane id=":1/2_22_0" index="0" speed="20.00" length="5.04" shape="150.11,300.05 151.25,301.95 151.65,304.75"/>
    </edge>
    <edge id=":1/2_23" function="internal">
        <lane id=":1/2_23_0" index="0" speed="20.00" length="2.41" shape="146.90,300.00 146.49,300.82 145.25,301.65"/>
    </edge>
    <edge id=":1/3_0" function="internal">
        <lane id=":1/3_0_0" index="0" speed="20.00" length="5.00" shape="148.35,454.75 148.16,453.39 147.57,452.42 146.61,451.84 145.25,451.65"/>
    </edge>
    <edge id=":1/3_1" function="internal">
        <lane id=":1/3_1_0" index="0" speed="20.00" length="9.50" shape="148.35,454.75 148.35,445.25"/>
    </edge>
    <edge id=":1/3_2" function="internal">
        <lane id=":1/3_2_0" index="0" speed="20.00" length="5.28" shape="148.35,454.75 148.75,451.95 149.95,449.95 150.05,449.89"/>
    </edge>
    <edge id=":1/3_3" function="internal">
        <lane id=":1/3_3_0" index="0" speed="20.00" length="2.41" shape="148.35,454.75 149.17,453.51 150.00,453.10"/>
    </edge>
    <edge id=":1/3_16" function="internal">
        <lane id=":1/3_16_0" index="0" speed="20.00" length="5.04" shape="150.05,449.89 151.95,448.75 154.75,448.35"/>
    </edge>
    <edge id=":1/3_17" function="internal">
        <lane id=":1/3_17_0" index="0" speed="20.00" length="2.41" shape="150.00,453.10 150.82,453.51 151.65,454.75"/>
    </edge>
    <edge id=":1/3_4" function="internal">
        <lane id=":1/3_4_0" index="0" speed="20.00" length="5.00" shape="154.75,451.65 153.39,451.84 152.43,452.42 151.84,453.39 151.65,454.75"/>
    </edge>
    <edge id=":1/3_5" function="internal">
        <lane id=":1/3_5_0" index="0" speed="20.00" length="9.50" shape="154.75,451.65 145.25,451.65"/>
    </edge>
    <edge id=":1/3_6" function="internal">
        <lane id=":1/3_6_0" index="0" speed="20.00" length="5.28" shape="154.75,451.65 151.95,451.25 149.95,450.05 149.89,449.95"/>
    </edge>
    <edge id=":1/3_7" function="internal">
        <lane id=":1/3_7_0" index="0" speed="20.00" length="2.41" shape="154.75,451.65 153.51,450.83 153.10,450.00"/>
    </edge>
    <edge id=":1/3_18" function="internal">
        <lane id=":1/3_18_0" index="0" speed="20.00" length="5.04" shape="149.89,449.95 148.75,448.05 148.35,445.25"/>
    </edge>
    <edge id=":1/3_19" function="internal">
        <lane id=":1/3_19_0" index="0" speed="20.00" length="2.41" shape="153.10,450.00 153.51,449.18 154.75,448.35"/>
    </edge>
    <edge id=":1/3_8" function="internal">
        <lane id=":1/3_8_0" index="0" speed="20.00" length="5.00" shape="151.65,445.25 151.84,446.61 152.43,447.58 153.39,448.16 154.75,448.35"/>
    </edge>
    <edge id=":1/3_9" function="internal">
        <lane id=":1/3_9_0" index="0" speed="20.00" length="9.50" shape="151.65,445.25 151.65,454.75"/>
    </edge>
    <edge id=":1/3_10" function="internal">
        <lane id=":1/3_10_0" index="0" speed="20.00" length="5.28" shape="151.65,445.25 151.25,448.05 150.05,450.05 149.95,450.11"/>
    </edge>
    <edge id=":1/3_11" function="internal">
        <lane id=":1/3_11_0" index="0" speed="20.00" length="2.41" shape="151.65,445.25 150.83,446.49 150.00,446.90"/>
    </edge>
    <edge id=":1/3_20" function="internal">
        <lane id=":1/3_20_0" index="0" speed="20.00" length="5.04" shape="149.95,450.11 148.05,451.25 145.25,451.65"/>
    </edge>
    <edge id=":1/3_21" function="internal">
        <lane id=":1/3_21_0" index="0" speed="20.00" length="2.41" shape="150.00,446.90 149.18,446.49 148.35,445.25"/>
    </edge>
    <edge id=":1/3_12" function="internal">
        <lane id=":1/3_12_0" index="0" speed="20.00" length="5.00" shape="145.25,448.35 146.61,448.16 147.57,447.58 148.16,446.61 148.35,445.25"/>
    </edge>
    <edge id=":1/3_13" function="internal">
        <lane id=":1/3_13_0" index="0" speed="20.00" length="9.50" shape="145.25,448.35 154.75,448.35"/>
    </edge>
    <edge id=":1/3_14" function="internal">
        <lane id=":1/3_14_0" index="0" speed="20.00" length="5.28" shape="145.25,448.35 148.05,448.75 150.05,449.95 150.11,450.05"/>
    </edge>
    <edge id=":1/3_15" function="internal">
        <lane id=":1/3_15_0" index="0" speed="20.00" length="2.41" shape="145.25,448.35 146.49,449.17 146.90,450.00"/>
    </edge>
    <edge id=":1/3_22" function="internal">
        <lane id=":1/3_22_0" index="0" speed="20.00" length="5.04" shape="150.11,450.05 151.25,451.95 151.65,454.75"/>
    </edge>
    <edge id=":1/3_23" function="internal">
        <lane id=":1/3_23_0" index="0" speed="20.00" length="2.41" shape="146.90,450.00 146.49,450.82 145.25,451.65"/>
    </edge>
    <edge id=":1/4_0" function="internal">
        <lane id=":1/4_0_0" index="0" speed="20.00" length="9.50" shape="154.75,601.65 145.25,601.65"/>
    </edge>
    <edge id=":1/4_1" function="internal">
        <lane id=":1/4_1_0" index="0" speed="20.00" length="5.28" shape="154.75,601.65 151.95,601.25 149.95,600.05 149.89,599.95"/>
    </edge>
    <edge id=":1/4_2" function="internal">
        <lane id=":1/4_2_0" index="0" speed="20.00" length="2.41" shape="154.75,601.65 153.51,600.82 153.10,600.00"/>
    </edge>
    <edge id=":1/4_9" function="internal">
        <lane id=":1/4_9_0" index="0" speed="20.00" length="5.04" shape="149.89,599.95 148.75,598.05 148.35,595.25"/>
    </edge>
    <edge id=":1/4_10" function="internal">
        <lane id=":1/4_10_0" index="0" speed="20.00" length="2.41" shape="153.10,600.00 153.51,599.17 154.75,598.35"/>
    </edge>
    <edge id=":1/4_3" function="internal">
        <lane id=":1/4_3_0" index="0" speed="20.00" length="5.00" shape="151.65,595.25 151.84,596.61 152.43,597.58 153.39,598.16 154.75,598.35"/>
    </edge>
    <edge id=":1/4_4" function="internal">
        <lane id=":1/4_4_0" index="0" speed="20.00" length="10.32" shape="151.65,595.25 151.25,598.05 150.05,600.05 148.05,601.25 145.25,601.65"/>
    </edge>
    <edge id=":1/4_5" function="internal">
        <lane id=":1/4_5_0" index="0" speed="20.00" length="2.69" shape="151.65,595.25 150.83,596.49 150.00,596.90 149.75,596.77"/>
    </edge>
    <edge id=":1/4_11" function="internal">
        <lane id=":1/4_11_0" index="0" speed="20.00" length="2.13" shape="149.75,596.77 149.18,596.49 148.35,595.25"/>
    </edge>
    <edge id=":1/4_6" function="internal">
        <lane id=":1/4_6_0" index="0" speed="20.00" length="5.00" shape="145.25,598.35 146.61,598.16 147.57,597.58 148.16,596.61 148.35,595.25"/>
    </edge>
    <edge id=":1/4_7" function="internal">
        <lane id=":1/4_7_0" index="0" speed="20.00" length="9.50" shape="145.25,598.35 154.75,598.35"/>
    </edge>
    <edge id=":1/4_8" function="internal">
        <lane id=":1/4_8_0" index="0" speed="20.00" length="2.41" shape="145.25,598.35 146.49,599.18 146.90,600.00"/>
    </edge>
    <edge id=":1/4_12" function="internal">
        <lane id=":1/4_12_0" index="0" speed="20.00" length="2.41" shape="146.90,600.00 146.49,600.83 145.25,601.65"/>
    </edge>
    <edge id=":2/0_0" function="internal">
        <lane id=":2/0_0_0" index="0" speed="20.00" length="5.00" shape="298.35,4.75 298.16,3.39 297.58,2.43 296.61,1.84 295.25,1.65"/>
    </edge>
    <edge id=":2/0_1" function="internal">
        <lane id=":2/0_1_0" index="0" speed="20.00" length="10.32" shape="298.35,4.75 298.75,1.95 299.95,-0.05 301.95,-1.25 304.75,-1.65"/>
    </edge>
    <edge id=":2/0_2" function="internal">
        <lane id=":2/0_2_0" index="0" speed="20.00" length="2.69" shape="298.35,4.75 299.17,3.51 300.00,3.10 300.25,3.23"/>
    </edge>
    <edge id=":2/0_9" function="internal">
        <lane id=":2/0_9_0" index="0" speed="20.00" length="2.13" shape="300.25,3.23 300.82,3.51 301.65,4.75"/>
    </edge>
    <edge id=":2/0_3" function="internal">
        <lane id=":2/0_3_0" index="0" speed="20.00" length="5.00" shape="304.75,1.65 303.39,1.84 302.42,2.42 301.84,3.39 301.65,4.75"/>
    </edge>
    <edge id=":2/0_4" function="internal">
        <lane id=":2/0_4_0" index="0" speed="20.00" length="9.50" shape="304.75,1.65 295.25,1.65"/>
    </edge>
    <edge id=":2/0_5" function="internal">
        <lane id=":2/0_5_0" index="0" speed="20.00" length="2.41" shape="304.75,1.65 303.51,0.83 303.10,0.00"/>
    </edge>
    <edge id=":2/0_10" function="internal">
        <lane id=":2/0_10_0" index="0" speed="20.00" length="2.41" shape="303.10,0.00 303.51,-0.83 304.75,-1.65"/>
    </edge>
    <edge id=":2/0_6" function="internal">
        <lane id=":2/0_6_0" index="0" speed="20.00" length="9.50" shape="295.25,-1.65 304.75,-1.65"/>
    </edge>
    <edge id=":2/0_7" function="internal">
        <lane id=":2/0_7_0" index="0" speed="20.00" length="5.28" shape="295.25,-1.65 298.05,-1.25 300.05,-0.05 300.11,0.05"/>
    </edge>
    <edge id=":2/0_8" function="internal">
        <lane id=":2/0_8_0" index="0" speed="20.00" length="2.41" shape="295.25,-1.65 296.49,-0.83 296.90,0.00"/>
    </edge>
    <edge id=":2/0_11" function="internal">
        <lane id=":2/0_11_0" index="0" speed="20.00" length="5.04" shape="300.11,0.05 301.25,1.95 301.65,4.75"/>
    </edge>
    <edge id=":2/0_12" function="internal">
        <lane id=":2/0_12_0" index="0" speed="20.00" length="2.41" shape="296.90,0.00 296.49,0.83 295.25,1.65"/>
    </edge>
    <edge id=":2/1_0" function="internal">
        <lane id=":2/1_0_0" index="0" speed="20.00" length="5.00" shape="298.35,154.75 298.16,153.39 297.58,152.43 296.61,151.84 295.25,151.65"/>
    </edge>
    <edge id=":2/1_1" function="internal">
        <lane id=":2/1_1_0" index="0" speed="20.00" length="9.50" shape="298.35,154.75 298.35,145.25"/>
    </edge>