<?xml version="1.0" encoding="UTF-8"?>

<!-- generated on Thu Mar 30 01:29:33 2017 by SUMO duarouter Version 0.29.0
<?xml version="1.0" encoding="UTF-8"?>

<configuration xmlns:xsi="http://www.w3.org/2001/XMLSchema-instance" xsi:noNamespaceSchemaLocation="http://sumo.dlr.de/xsd/duarouterConfiguration.xsd">

    <input>
        <net-file value="map10-1.net.xml"/>
        <trip-files value="trip10-1.trips.xml"/>
    </input>

    <output>
        <output-file value="routes10-1.rou.xml"/>
    </output>

    <processing>
        <ignore-errors value="true"/>
        <repair value="true"/>
    </processing>

</configuration>
-->

<routes xmlns:xsi="http://www.w3.org/2001/XMLSchema-instance" xsi:noNamespaceSchemaLocation="http://sumo.dlr.de/xsd/routes_file.xsd">
    <vehicle id="0" depart="0.00" departLane="best" departPos="random_free" departSpeed="max">
        <route edges="3/4to2/4 2/4to2/3 2/3to3/3 3/3to3/4"/>
    </vehicle>
    <vehicle id="1" depart="1.00" departLane="best" departPos="random_free" departSpeed="max">
        <route edges="2/2to2/3 2/3to3/3 3/3to4/3 4/3to3/3"/>
    </vehicle>
    <vehicle id="2" depart="2.00" departLane="best" departPos="random_free" departSpeed="max">
        <route edges="1/1to0/1 0/1to1/1 1/1to1/0 1/0to2/0 2/0to3/0 3/0to2/0"/>
    </vehicle>
    <vehicle id="3" depart="3.00" departLane="best" departPos="random_free" departSpeed="max">
        <route edges="4/3to3/3 3/3to2/3 2/3to1/3 1/3to0/3 0/3to0/2 0/2to0/1 0/1to0/2"/>
    </vehicle>
    <vehicle id="4" depart="4.00" departLane="best" departPos="random_free" departSpeed="max">
        <route edges="3/0to2/0 2/0to1/0 1/0to1/1 1/1to0/1 0/1to0/2"/>
    </vehicle>
    <vehicle id="5" depart="5.00" departLane="best" departPos="random_free" departSpeed="max">
        <route edges="2/0to2/1 2/1to1/1 1/1to0/1 0/1to0/2 0/2to0/3 0/3to0/2"/>
    </vehicle>
    <vehicle id="6" depart="6.00" departLane="best" departPos="random_free" departSpeed="max">
        <route edges="0/3to0/4 0/4to0/3 0/3to0/2 0/2to1/2 1/2to2/2 2/2to2/1"/>
    </vehicle>
    <vehicle id="7" depart="7.00" departLane="best" departPos="random_free" departSpeed="max">
        <route edges="1/2to0/2 0/2to0/1 0/1to1/1 1/1to1/0 1/0to2/0 2/0to3/0 3/0to3/1"/>
    </vehicle>
    <vehicle id="8" depart="8.00" departLane="best" departPos="random_free" departSpeed="max">
        <route edges="0/2to0/3 0/3to1/3 1/3to2/3 2/3to3/3 3/3to3/4"/>
    </vehicle>
    <vehicle id="9" depart="9.00" departLane="best" departPos="random_free" departSpeed="max">
        <route edges="3/4to2/4 2/4to1/4 1/4to1/3 1/3to1/2"/>
    </vehicle>
</routes>
