<?xml version="1.0" encoding="UTF-8"?>

<!-- generated on Wed Mar  8 09:16:10 2017 by SUMO duarouter Version 0.29.0
<?xml version="1.0" encoding="UTF-8"?>

<configuration xmlns:xsi="http://www.w3.org/2001/XMLSchema-instance" xsi:noNamespaceSchemaLocation="http://sumo.dlr.de/xsd/duarouterConfiguration.xsd">

    <input>
        <net-file value="map.net.xml"/>
        <trip-files value="trip30.trips.xml"/>
    </input>

    <output>
        <output-file value="routes30.rou.xml"/>
    </output>

    <processing>
        <ignore-errors value="true"/>
        <repair value="true"/>
    </processing>

</configuration>
-->

<routes xmlns:xsi="http://www.w3.org/2001/XMLSchema-instance" xsi:noNamespaceSchemaLocation="http://sumo.dlr.de/xsd/routes_file.xsd">
    <vehicle id="0" depart="0.00" departLane="best" departPos="random_free" departSpeed="max">
        <route edges="5/0to5/1 5/1to4/1 4/1to4/0 4/0to5/0"/>
    </vehicle>
    <vehicle id="1" depart="1.00" departLane="best" departPos="random_free" departSpeed="max">
        <route edges="2/4to1/4 1/4to1/3 1/3to2/3 2/3to3/3 3/3to4/3"/>
    </vehicle>
    <vehicle id="2" depart="2.00" departLane="best" departPos="random_free" departSpeed="max">
        <route edges="5/5to5/6 5/6to4/6 4/6to3/6 3/6to2/6 2/6to1/6 1/6to1/5"/>
    </vehicle>
    <vehicle id="3" depart="3.00" departLane="best" departPos="random_free" departSpeed="max">
        <route edges="6/5to6/4 6/4to5/4 5/4to4/4 4/4to4/5 4/5to4/6"/>
    </vehicle>
    <vehicle id="4" depart="4.00" departLane="best" departPos="random_free" departSpeed="max">
        <route edges="6/4to5/4 5/4to5/3 5/3to5/2 5/2to5/1 5/1to6/1"/>
    </vehicle>
    <vehicle id="5" depart="5.00" departLane="best" departPos="random_free" departSpeed="max">
        <route edges="5/3to6/3 6/3to5/3 5/3to4/3 4/3to4/4 4/4to4/5 4/5to4/6 4/6to5/6"/>
    </vehicle>
    <vehicle id="6" depart="6.00" departLane="best" departPos="random_free" departSpeed="max">
        <route edges="1/1to1/2 1/2to1/3 1/3to1/4 1/4to2/4 2/4to3/4 3/4to4/4 4/4to5/4 5/4to5/3"/>
    </vehicle>
    <vehicle id="7" depart="7.00" departLane="best" departPos="random_free" departSpeed="max">
        <route edges="1/2to0/2 0/2to0/3 0/3to0/4 0/4to0/5 0/5to1/5 1/5to2/5 2/5to3/5 3/5to4/5 4/5to5/5 5/5to6/5 6/5to6/4"/>
    </vehicle>
    <vehicle id="8" depart="8.00" departLane="best" departPos="random_free" departSpeed="max">
        <route edges="4/0to3/0 3/0to3/1 3/1to3/2 3/2to3/3 3/3to3/4 3/4to3/5 3/5to3/6 3/6to4/6 4/6to5/6 5/6to5/5"/>
    </vehicle>
    <vehicle id="9" depart="9.00" departLane="best" departPos="random_free" departSpeed="max">
        <route edges="5/5to6/5 6/5to5/5 5/5to4/5 4/5to3/5 3/5to2/5 2/5to1/5 1/5to1/4 1/4to1/3 1/3to1/2 1/2to1/3"/>
    </vehicle>
    <vehicle id="10" depart="10.00" departLane="best" departPos="random_free" departSpeed="max">
        <route edges="6/6to5/6 5/6to4/6 4/6to3/6 3/6to2/6 2/6to2/5 2/5to2/4 2/4to2/3 2/3to2/4"/>
    </vehicle>
    <vehicle id="11" depart="11.00" departLane="best" departPos="random_free" departSpeed="max">
        <route edges="3/4to4/4 4/4to4/5 4/5to5/5 5/5to6/5 6/5to5/5"/>
    </vehicle>
    <vehicle id="12" depart="12.00" departLane="best" departPos="random_free" departSpeed="max">
        <route edges="1/2to2/2 2/2to2/3 2/3to2/4 2/4to2/5"/>
    </vehicle>
    <vehicle id="13" depart="13.00" departLane="best" departPos="random_free" departSpeed="max">
        <route edges="3/1to3/0 3/0to3/1 3/1to3/2 3/2to3/3 3/3to4/3 4/3to4/4"/>
    </vehicle>
    <vehicle id="14" depart="14.00" departLane="best" departPos="random_free" departSpeed="max">
        <route edges="2/3to2/2 2/2to2/1 2/1to3/1 3/1to4/1 4/1to5/1 5/1to6/1 6/1to6/2"/>
    </vehicle>
    <vehicle id="15" depart="15.00" departLane="best" departPos="random_free" departSpeed="max">
        <route edges="3/1to3/2 3/2to3/3 3/3to3/4 3/4to3/5 3/5to3/6 3/6to4/6 4/6to5/6 5/6to4/6"/>
    </vehicle>
    <vehicle id="16" depart="16.00" departLane="best" departPos="random_free" departSpeed="max">
        <route edges="3/5to3/6 3/6to2/6 2/6to2/5 2/5to2/4 2/4to2/3 2/3to2/2 2/2to2/1 2/1to2/0 2/0to3/0"/>
    </vehicle>
    <vehicle id="17" depart="17.00" departLane="best" departPos="random_free" departSpeed="max">
        <route edges="3/2to3/3 3/3to3/2 3/2to3/1 3/1to3/0 3/0to4/0 4/0to4/1"/>
    </vehicle>
    <vehicle id="18" depart="18.00" departLane="best" departPos="random_free" departSpeed="max">
        <route edges="3/0to3/1 3/1to2/1 2/1to1/1 1/1to0/1 0/1to0/2 0/2to0/3 0/3to0/4 0/4to0/3"/>
    </vehicle>
    <vehicle id="19" depart="19.00" departLane="best" departPos="random_free" departSpeed="max">
        <route edges="1/2to0/2 0/2to0/3 0/3to1/3 1/3to2/3 2/3to1/3"/>
    </vehicle>
    <vehicle id="20" depart="20.00" departLane="best" departPos="random_free" departSpeed="max">
        <route edges="1/6to1/5 1/5to2/5 2/5to3/5 3/5to4/5 4/5to5/5 5/5to5/4"/>
    </vehicle>
    <vehicle id="21" depart="21.00" departLane="best" departPos="random_free" departSpeed="max">
        <route edges="0/3to0/2 0/2to0/3 0/3to0/4 0/4to0/5 0/5to0/4"/>
    </vehicle>
    <vehicle id="22" depart="22.00" departLane="best" departPos="random_free" departSpeed="max">
        <route edges="5/6to6/6 6/6to5/6 5/6to4/6 4/6to3/6 3/6to2/6 2/6to2/5 2/5to2/4 2/4to2/3"/>
    </vehicle>
    <vehicle id="23" depart="23.00" departLane="best" departPos="random_free" departSpeed="max">
        <route edges="5/6to5/5 5/5to4/5 4/5to4/4 4/4to4/3 4/3to4/2 4/2to4/1 4/1to3/1"/>
    </vehicle>
    <vehicle id="24" depart="24.00" departLane="best" departPos="random_free" departSpeed="max">
        <route edges="2/1to3/1 3/1to3/0"/>
    </vehicle>
    <vehicle id="25" depart="25.00" departLane="best" departPos="random_free" departSpeed="max">
        <route edges="4/0to3/0 3/0to3/1 3/1to4/1 4/1to5/1 5/1to4/1"/>
    </vehicle>
    <vehicle id="26" depart="26.00" departLane="best" departPos="random_free" departSpeed="max">
        <route edges="5/3to4/3 4/3to3/3 3/3to3/2"/>
    </vehicle>
    <vehicle id="27" depart="27.00" departLane="best" departPos="random_free" departSpeed="max">
        <route edges="2/4to2/5 2/5to2/4 2/4to2/3 2/3to2/2 2/2to3/2 3/2to3/3"/>
    </vehicle>
    <vehicle id="28" depart="28.00" departLane="best" departPos="random_free" departSpeed="max">
        <route edges="0/4to0/5 0/5to0/4 0/4to0/3 0/3to0/2 0/2to1/2 1/2to1/1"/>
    </vehicle>
    <vehicle id="29" depart="29.00" departLane="best" departPos="random_free" departSpeed="max">
        <route edges="3/6to4/6 4/6to4/5 4/5to5/5 5/5to6/5 6/5to6/6"/>
    </vehicle>
</routes>
