<?xml version="1.0"?>
<!-- generated on 2017-04-04 13:29:05.173671 by $Id: randomTrips.py 22929 2017-02-13 14:38:39Z behrisch $
  options: -n map.net.xml -e 20 -l <doubleminus>trip-attributes=departLane="best" departSpeed="max" departPos="random_free" -o trip.trips.xml
-->
<routes xmlns:xsi="http://www.w3.org/2001/XMLSchema-instance" xsi:noNamespaceSchemaLocation="http://sumo.dlr.de/xsd/routes_file.xsd">
    <trip id="0" depart="0.00" from="2/2to2/3" to="4/3to3/3" departLane="best" departSpeed="max" departPos="random_free"/>
    <trip id="1" depart="1.00" from="2/2to1/2" to="3/2to4/2" departLane="best" departSpeed="max" departPos="random_free"/>
    <trip id="2" depart="2.00" from="0/1to1/1" to="2/0to2/1" departLane="best" departSpeed="max" departPos="random_free"/>
    <trip id="3" depart="3.00" from="4/4to4/3" to="3/1to3/2" departLane="best" departSpeed="max" departPos="random_free"/>
    <trip id="4" depart="4.00" from="1/3to2/3" to="4/4to3/4" departLane="best" departSpeed="max" departPos="random_free"/>
    <trip id="5" depart="5.00" from="1/1to1/0" to="3/0to4/0" departLane="best" departSpeed="max" departPos="random_free"/>
    <trip id="6" depart="6.00" from="4/1to3/1" to="3/3to2/3" departLane="best" departSpeed="max" departPos="random_free"/>
    <trip id="7" depart="7.00" from="1/0to0/0" to="3/1to4/1" departLane="best" departSpeed="max" departPos="random_free"/>
    <trip id="8" depart="8.00" from="2/4to1/4" to="2/2to3/2" departLane="best" departSpeed="max" departPos="random_free"/>
    <trip id="9" depart="9.00" from="2/1to2/2" to="0/3to0/2" departLane="best" departSpeed="max" departPos="random_free"/>
    <trip id="10" depart="10.00" from="4/3to3/3" to="3/3to4/3" departLane="best" departSpeed="max" departPos="random_free"/>
    <trip id="11" depart="11.00" from="1/3to1/4" to="3/1to2/1" departLane="best" departSpeed="max" departPos="random_free"/>
    <trip id="12" depart="12.00" from="2/2to2/3" to="4/0to3/0" departLane="best" departSpeed="max" departPos="random_free"/>
    <trip id="13" depart="13.00" from="3/2to2/2" to="4/3to4/2" departLane="best" departSpeed="max" departPos="random_free"/>
    <trip id="14" depart="14.00" from="3/4to4/4" to="2/1to2/2" departLane="best" departSpeed="max" departPos="random_free"/>
    <trip id="15" depart="15.00" from="4/2to4/1" to="1/1to2/1" departLane="best" departSpeed="max" departPos="random_free"/>
    <trip id="16" depart="16.00" from="0/4to0/3" to="4/1to3/1" departLane="best" departSpeed="max" departPos="random_free"/>
    <trip id="17" depart="17.00" from="3/1to3/0" to="1/2to2/2" departLane="best" departSpeed="max" departPos="random_free"/>
    <trip id="18" depart="18.00" from="3/1to3/2" to="4/2to4/3" departLane="best" departSpeed="max" departPos="random_free"/>
    <trip id="19" depart="19.00" from="4/2to4/1" to="4/3to4/2" departLane="best" departSpeed="max" departPos="random_free"/>
</routes>
