<?xml version="1.0"?>
<!-- generated on 2017-03-29 23:50:18.421423 by $Id: randomTrips.py 22929 2017-02-13 14:38:39Z behrisch $
  options: -n map10.net.xml -e 10 -l <doubleminus>trip-attributes=departLane="best" departSpeed="max" departPos="random_free" -o trip10.trips.xml
-->
<routes xmlns:xsi="http://www.w3.org/2001/XMLSchema-instance" xsi:noNamespaceSchemaLocation="http://sumo.dlr.de/xsd/routes_file.xsd">
    <trip id="0" depart="0.00" from="2/2to1/2" to="2/1to1/1" departLane="best" departSpeed="max" departPos="random_free"/>
    <trip id="1" depart="1.00" from="1/2to0/2" to="1/1to0/1" departLane="best" departSpeed="max" departPos="random_free"/>
    <trip id="2" depart="2.00" from="1/1to1/0" to="1/1to0/1" departLane="best" departSpeed="max" departPos="random_free"/>
    <trip id="3" depart="3.00" from="1/1to2/1" to="0/0to0/1" departLane="best" departSpeed="max" departPos="random_free"/>
    <trip id="4" depart="4.00" from="1/2to0/2" to="1/2to0/2" departLane="best" departSpeed="max" departPos="random_free"/>
    <trip id="5" depart="5.00" from="1/2to2/2" to="1/1to1/2" departLane="best" departSpeed="max" departPos="random_free"/>
    <trip id="6" depart="6.00" from="0/0to0/1" to="1/1to2/1" departLane="best" departSpeed="max" departPos="random_free"/>
    <trip id="7" depart="7.00" from="1/0to1/1" to="1/1to1/2" departLane="best" departSpeed="max" departPos="random_free"/>
    <trip id="8" depart="8.00" from="1/0to0/0" to="2/2to1/2" departLane="best" departSpeed="max" departPos="random_free"/>
    <trip id="9" depart="9.00" from="1/0to1/1" to="2/0to2/1" departLane="best" departSpeed="max" departPos="random_free"/>
</routes>
