<?xml version="1.0"?>
<!-- generated on 2017-03-06 14:07:18.178161 by $Id: randomTrips.py 22929 2017-02-13 14:38:39Z behrisch $
  options: -n map.net.xml -e 10 -l <doubleminus>trip-attributes=departLane="best" departSpeed="max" departPos="random_free" -o trip.trips.xml
-->
<routes xmlns:xsi="http://www.w3.org/2001/XMLSchema-instance" xsi:noNamespaceSchemaLocation="http://sumo.dlr.de/xsd/routes_file.xsd">
    <trip id="0" depart="0.00" from="4/6to4/5" to="6/3to5/3" departLane="best" departSpeed="max" departPos="random_free"/>
    <trip id="1" depart="1.00" from="5/1to5/0" to="2/2to2/3" departLane="best" departSpeed="max" departPos="random_free"/>
    <trip id="2" depart="2.00" from="3/1to4/1" to="5/1to5/2" departLane="best" departSpeed="max" departPos="random_free"/>
    <trip id="3" depart="3.00" from="1/6to2/6" to="4/6to5/6" departLane="best" departSpeed="max" departPos="random_free"/>
    <trip id="4" depart="4.00" from="4/1to3/1" to="5/4to5/3" departLane="best" departSpeed="max" departPos="random_free"/>
    <trip id="5" depart="5.00" from="6/1to6/2" to="5/3to5/2" departLane="best" departSpeed="max" departPos="random_free"/>
    <trip id="6" depart="6.00" from="1/2to1/3" to="6/2to5/2" departLane="best" departSpeed="max" departPos="random_free"/>
    <trip id="7" depart="7.00" from="3/5to4/5" to="1/3to0/3" departLane="best" departSpeed="max" departPos="random_free"/>
    <trip id="8" depart="8.00" from="1/0to2/0" to="1/6to1/5" departLane="best" departSpeed="max" departPos="random_free"/>
    <trip id="9" depart="9.00" from="3/3to3/4" to="4/0to4/1" departLane="best" departSpeed="max" departPos="random_free"/>
</routes>
