<?xml version="1.0"?>
<!-- generated on 2017-03-08 09:14:58.711778 by $Id: randomTrips.py 22929 2017-02-13 14:38:39Z behrisch $
  options: -n map.net.xml -e 30 -l <doubleminus>trip-attributes=departLane="best" departSpeed="max" departPos="random_free" -o trip30.trips.xml
-->
<routes xmlns:xsi="http://www.w3.org/2001/XMLSchema-instance" xsi:noNamespaceSchemaLocation="http://sumo.dlr.de/xsd/routes_file.xsd">
    <trip id="0" depart="0.00" from="5/0to5/1" to="4/0to5/0" departLane="best" departSpeed="max" departPos="random_free"/>
    <trip id="1" depart="1.00" from="2/4to1/4" to="3/3to4/3" departLane="best" departSpeed="max" departPos="random_free"/>
    <trip id="2" depart="2.00" from="5/5to5/6" to="1/6to1/5" departLane="best" departSpeed="max" departPos="random_free"/>
    <trip id="3" depart="3.00" from="6/5to6/4" to="4/5to4/6" departLane="best" departSpeed="max" departPos="random_free"/>
    <trip id="4" depart="4.00" from="6/4to5/4" to="5/1to6/1" departLane="best" departSpeed="max" departPos="random_free"/>
    <trip id="5" depart="5.00" from="5/3to6/3" to="4/6to5/6" departLane="best" departSpeed="max" departPos="random_free"/>
    <trip id="6" depart="6.00" from="1/1to1/2" to="5/4to5/3" departLane="best" departSpeed="max" departPos="random_free"/>
    <trip id="7" depart="7.00" from="1/2to0/2" to="6/5to6/4" departLane="best" departSpeed="max" departPos="random_free"/>
    <trip id="8" depart="8.00" from="4/0to3/0" to="5/6to5/5" departLane="best" departSpeed="max" departPos="random_free"/>
    <trip id="9" depart="9.00" from="5/5to6/5" to="1/2to1/3" departLane="best" departSpeed="max" departPos="random_free"/>
    <trip id="10" depart="10.00" from="6/6to5/6" to="2/3to2/4" departLane="best" departSpeed="max" departPos="random_free"/>
    <trip id="11" depart="11.00" from="3/4to4/4" to="6/5to5/5" departLane="best" departSpeed="max" departPos="random_free"/>
    <trip id="12" depart="12.00" from="1/2to2/2" to="2/4to2/5" departLane="best" departSpeed="max" departPos="random_free"/>
    <trip id="13" depart="13.00" from="3/1to3/0" to="4/3to4/4" departLane="best" departSpeed="max" departPos="random_free"/>
    <trip id="14" depart="14.00" from="2/3to2/2" to="6/1to6/2" departLane="best" departSpeed="max" departPos="random_free"/>
    <trip id="15" depart="15.00" from="3/1to3/2" to="5/6to4/6" departLane="best" departSpeed="max" departPos="random_free"/>
    <trip id="16" depart="16.00" from="3/5to3/6" to="2/0to3/0" departLane="best" departSpeed="max" departPos="random_free"/>
    <trip id="17" depart="17.00" from="3/2to3/3" to="4/0to4/1" departLane="best" departSpeed="max" departPos="random_free"/>
    <trip id="18" depart="18.00" from="3/0to3/1" to="0/4to0/3" departLane="best" departSpeed="max" departPos="random_free"/>
    <trip id="19" depart="19.00" from="1/2to0/2" to="2/3to1/3" departLane="best" departSpeed="max" departPos="random_free"/>
    <trip id="20" depart="20.00" from="1/6to1/5" to="5/5to5/4" departLane="best" departSpeed="max" departPos="random_free"/>
    <trip id="21" depart="21.00" from="0/3to0/2" to="0/5to0/4" departLane="best" departSpeed="max" departPos="random_free"/>
    <trip id="22" depart="22.00" from="5/6to6/6" to="2/4to2/3" departLane="best" departSpeed="max" departPos="random_free"/>
    <trip id="23" depart="23.00" from="5/6to5/5" to="4/1to3/1" departLane="best" departSpeed="max" departPos="random_free"/>
    <trip id="24" depart="24.00" from="2/1to3/1" to="3/1to3/0" departLane="best" departSpeed="max" departPos="random_free"/>
    <trip id="25" depart="25.00" from="4/0to3/0" to="5/1to4/1" departLane="best" departSpeed="max" departPos="random_free"/>
    <trip id="26" depart="26.00" from="5/3to4/3" to="3/3to3/2" departLane="best" departSpeed="max" departPos="random_free"/>
    <trip id="27" depart="27.00" from="2/4to2/5" to="3/2to3/3" departLane="best" departSpeed="max" departPos="random_free"/>
    <trip id="28" depart="28.00" from="0/4to0/5" to="1/2to1/1" departLane="best" departSpeed="max" departPos="random_free"/>
    <trip id="29" depart="29.00" from="3/6to4/6" to="6/5to6/6" departLane="best" departSpeed="max" departPos="random_free"/>
</routes>
