<?xml version="1.0"?>
<!-- generated on 2017-03-07 17:27:13.722673 by $Id: randomTrips.py 22929 2017-02-13 14:38:39Z behrisch $
  options: -n map.net.xml -e 10 -l <doubleminus>trip-attributes=departLane="best" departSpeed="max" departPos="random_free" -o trip.trips.xml
-->
<routes xmlns:xsi="http://www.w3.org/2001/XMLSchema-instance" xsi:noNamespaceSchemaLocation="http://sumo.dlr.de/xsd/routes_file.xsd">
    <trip id="0" depart="0.00" from="2/2to2/1" to="1/2to0/2" departLane="best" departSpeed="max" departPos="random_free"/>
    <trip id="1" depart="1.00" from="4/3to4/2" to="4/6to5/6" departLane="best" departSpeed="max" departPos="random_free"/>
    <trip id="2" depart="2.00" from="6/5to5/5" to="6/2to6/3" departLane="best" departSpeed="max" departPos="random_free"/>
    <trip id="3" depart="3.00" from="0/3to0/4" to="3/2to4/2" departLane="best" departSpeed="max" departPos="random_free"/>
    <trip id="4" depart="4.00" from="1/5to0/5" to="4/5to4/4" departLane="best" departSpeed="max" departPos="random_free"/>
    <trip id="5" depart="5.00" from="5/2to5/3" to="3/1to3/0" departLane="best" departSpeed="max" departPos="random_free"/>
    <trip id="6" depart="6.00" from="1/1to0/1" to="1/1to1/2" departLane="best" departSpeed="max" departPos="random_free"/>
    <trip id="7" depart="7.00" from="6/6to5/6" to="5/3to4/3" departLane="best" departSpeed="max" departPos="random_free"/>
    <trip id="8" depart="8.00" from="4/3to3/3" to="3/6to3/5" departLane="best" departSpeed="max" departPos="random_free"/>
    <trip id="9" depart="9.00" from="6/2to5/2" to="4/4to4/3" departLane="best" departSpeed="max" departPos="random_free"/>
</routes>
